xflr5 v6.61
SD6060-104-88-MP
T1_Re0.225_M0.06_N9.0_XtrTop15%_XtrBot15%
Alpha =   6.0,  Re =   225000,  Ma = 0.0610,  ACrit = 9.0 

   x        Cpi      Cpv        Qi        Qv
 1.0000    0.276     0.150     0.851     0.922
 0.9971    0.249     0.145     0.867     0.925
 0.9920    0.229     0.141     0.878     0.927
 0.9861    0.209     0.136     0.889     0.930
 0.9795    0.190     0.129     0.900     0.933
 0.9726    0.171     0.122     0.911     0.937
 0.9655    0.154     0.115     0.920     0.941
 0.9582    0.138     0.107     0.928     0.945
 0.9508    0.124     0.099     0.936     0.949
 0.9434    0.109     0.091     0.944     0.954
 0.9360    0.094     0.082     0.952     0.958
 0.9286    0.078     0.073     0.960     0.963
 0.9211    0.064     0.063     0.968     0.968
 0.9137    0.049     0.053     0.975     0.973
 0.9061    0.035     0.043     0.982     0.978
 0.8986    0.021     0.033     0.989     0.983
 0.8911    0.008     0.023     0.996     0.989
 0.8836   -0.006     0.012     1.003     0.994
 0.8760   -0.019     0.002     1.010     0.999
 0.8685   -0.032    -0.009     1.016     1.005
 0.8609   -0.046    -0.020     1.022     1.010
 0.8533   -0.059    -0.031     1.029     1.015
 0.8458   -0.072    -0.042     1.035     1.021
 0.8382   -0.085    -0.054     1.041     1.027
 0.8306   -0.098    -0.065     1.048     1.032
 0.8231   -0.111    -0.077     1.054     1.038
 0.8155   -0.124    -0.088     1.060     1.043
 0.8079   -0.136    -0.100     1.066     1.049
 0.8004   -0.149    -0.112     1.072     1.054
 0.7928   -0.161    -0.123     1.077     1.060
 0.7853   -0.174    -0.135     1.083     1.065
 0.7778   -0.186    -0.147     1.089     1.071
 0.7702   -0.198    -0.158     1.094     1.076
 0.7627   -0.210    -0.170     1.100     1.081
 0.7551   -0.222    -0.182     1.105     1.087
 0.7476   -0.234    -0.193     1.111     1.092
 0.7401   -0.247    -0.205     1.116     1.097
 0.7325   -0.259    -0.217     1.122     1.103
 0.7250   -0.271    -0.228     1.127     1.108
 0.7175   -0.283    -0.240     1.132     1.113
 0.7099   -0.295    -0.252     1.138     1.119
 0.7024   -0.307    -0.263     1.143     1.124
 0.6949   -0.319    -0.275     1.148     1.129
 0.6874   -0.330    -0.287     1.153     1.134
 0.6799   -0.342    -0.298     1.158     1.139
 0.6723   -0.354    -0.310     1.163     1.144
 0.6648   -0.365    -0.321     1.168     1.149
 0.6573   -0.377    -0.333     1.173     1.154
 0.6498   -0.388    -0.344     1.178     1.159
 0.6423   -0.400    -0.356     1.183     1.164
 0.6347   -0.411    -0.367     1.187     1.169
 0.6272   -0.423    -0.379     1.192     1.174
 0.6197   -0.434    -0.390     1.197     1.179
 0.6122   -0.446    -0.402     1.202     1.184
 0.6046   -0.458    -0.414     1.207     1.189
 0.5971   -0.470    -0.425     1.212     1.194
 0.5896   -0.482    -0.437     1.217     1.198
 0.5821   -0.495    -0.449     1.222     1.204
 0.5745   -0.507    -0.462     1.227     1.209
 0.5670   -0.521    -0.474     1.233     1.214
 0.5595   -0.534    -0.487     1.238     1.219
 0.5520   -0.547    -0.499     1.243     1.224
 0.5445   -0.560    -0.512     1.249     1.229
 0.5370   -0.573    -0.524     1.254     1.234
 0.5295   -0.586    -0.536     1.259     1.239
 0.5221   -0.598    -0.548     1.264     1.244
 0.5146   -0.611    -0.560     1.268     1.248
 0.5071   -0.623    -0.572     1.273     1.253
 0.4996   -0.634    -0.583     1.278     1.258
 0.4921   -0.646    -0.594     1.282     1.262
 0.4847   -0.657    -0.605     1.287     1.266
 0.4772   -0.669    -0.616     1.291     1.271
 0.4697   -0.679    -0.627     1.295     1.275
 0.4622   -0.690    -0.638     1.299     1.279
 0.4547   -0.701    -0.648     1.303     1.283
 0.4473   -0.711    -0.658     1.307     1.287
 0.4398   -0.722    -0.668     1.311     1.291
 0.4323   -0.732    -0.678     1.315     1.295
 0.4248   -0.742    -0.688     1.319     1.299
 0.4173   -0.752    -0.698     1.323     1.302
 0.4098   -0.762    -0.708     1.327     1.306
 0.4024   -0.772    -0.717     1.330     1.310
 0.3949   -0.782    -0.727     1.334     1.313
 0.3874   -0.792    -0.737     1.338     1.317
 0.3799   -0.802    -0.746     1.341     1.321
 0.3724   -0.812    -0.756     1.345     1.324
 0.3649   -0.822    -0.765     1.349     1.328
 0.3575   -0.832    -0.775     1.353     1.332
 0.3500   -0.842    -0.785     1.356     1.335
 0.3425   -0.852    -0.794     1.360     1.339
 0.3350   -0.862    -0.804     1.364     1.342
 0.3276   -0.872    -0.814     1.367     1.346
 0.3201   -0.883    -0.824     1.371     1.350
 0.3126   -0.893    -0.834     1.375     1.354
 0.3051   -0.904    -0.845     1.379     1.357
 0.2977   -0.915    -0.855     1.383     1.361
 0.2902   -0.927    -0.866     1.387     1.365
 0.2828   -0.939    -0.877     1.391     1.369
 0.2753   -0.951    -0.888     1.396     1.373
 0.2679   -0.963    -0.899     1.400     1.377
 0.2604   -0.976    -0.910     1.405     1.381
 0.2530   -0.989    -0.921     1.409     1.385
 0.2456   -1.002    -0.932     1.414     1.389
 0.2382   -1.016    -0.944     1.419     1.393
 0.2308   -1.030    -0.955     1.424     1.397
 0.2234   -1.044    -0.967     1.429     1.402
 0.2160   -1.059    -0.980     1.434     1.406
 0.2087   -1.074    -0.993     1.439     1.411
 0.2013   -1.090    -1.008     1.445     1.416
 0.1940   -1.106    -1.025     1.450     1.422
 0.1867   -1.123    -1.046     1.456     1.429
 0.1794   -1.140    -1.072     1.462     1.438
 0.1721   -1.157    -1.101     1.468     1.449
 0.1649   -1.176    -1.134     1.474     1.460
 0.1576   -1.195    -1.164     1.480     1.470
 0.1504   -1.215    -1.190     1.487     1.479
 0.1432   -1.236    -1.203     1.494     1.483
 0.1361   -1.258    -1.219     1.501     1.488
 0.1290   -1.281    -1.236     1.509     1.494
 0.1219   -1.305    -1.254     1.517     1.500
 0.1149   -1.331    -1.274     1.525     1.507
 0.1079   -1.357    -1.296     1.534     1.514
 0.1009   -1.385    -1.319     1.543     1.521
 0.0941   -1.415    -1.343     1.553     1.529
 0.0873   -1.446    -1.369     1.562     1.538
 0.0805   -1.478    -1.396     1.573     1.546
 0.0739   -1.512    -1.424     1.583     1.556
 0.0674   -1.549    -1.454     1.595     1.565
 0.0610   -1.585    -1.485     1.606     1.575
 0.0548   -1.623    -1.517     1.618     1.585
 0.0487   -1.665    -1.552     1.631     1.596
 0.0428   -1.709    -1.590     1.644     1.608
 0.0371   -1.755    -1.629     1.658     1.620
 0.0317   -1.814    -1.673     1.675     1.633
 0.0269   -1.883    -1.716     1.696     1.646
 0.0226   -1.940    -1.750     1.712     1.656
 0.0187   -1.976    -1.774     1.723     1.664
 0.0153   -1.990    -1.796     1.727     1.670
 0.0124   -2.007    -1.837     1.732     1.682
 0.0100   -2.046    -1.905     1.743     1.702
 0.0079   -2.141    -1.998     1.770     1.729
 0.0062   -2.362    -2.108     1.831     1.761
 0.0048   -2.565    -2.208     1.885     1.789
 0.0037   -2.693    -2.272     1.919     1.806
 0.0028   -2.738    -2.286     1.930     1.810
 0.0020   -2.714    -2.259     1.924     1.803
 0.0014   -2.658    -2.215     1.910     1.790
 0.0009   -2.633    -2.172     1.903     1.779
 0.0005   -2.615    -2.122     1.898     1.765
 0.0003   -2.581    -2.047     1.889     1.743
 0.0001   -2.499    -1.925     1.868     1.708
 0.0001   -2.323    -1.721     1.820     1.648
 0.0002   -1.995    -1.379     1.729     1.541
 0.0004   -1.406    -0.869     1.550     1.366
 0.0007   -0.735    -0.324     1.316     1.150
 0.0012   -0.166     0.132     1.080     0.932
 0.0019    0.266     0.473     0.857     0.727
 0.0026    0.569     0.707     0.657     0.542
 0.0036    0.771     0.857     0.480     0.379
 0.0049    0.895     0.945     0.325     0.236
 0.0064    0.964     0.988     0.193     0.113
 0.0083    0.996     1.001     0.068    -0.006
 0.0106    0.998     0.987    -0.051    -0.118
 0.0134    0.977     0.955    -0.154    -0.215
 0.0163    0.945     0.915    -0.237    -0.293
 0.0195    0.906     0.872    -0.308    -0.359
 0.0230    0.864     0.826    -0.370    -0.418
 0.0272    0.818     0.778    -0.428    -0.473
 0.0323    0.767     0.725    -0.484    -0.525
 0.0384    0.713     0.671    -0.537    -0.575
 0.0451    0.663     0.621    -0.581    -0.616
 0.0518    0.622     0.580    -0.615    -0.649
 0.0583    0.586     0.544    -0.644    -0.676
 0.0650    0.554     0.513    -0.669    -0.699
 0.0719    0.525     0.484    -0.690    -0.719
 0.0789    0.498     0.458    -0.709    -0.736
 0.0862    0.474     0.435    -0.726    -0.752
 0.0935    0.452     0.414    -0.740    -0.766
 0.1008    0.433     0.395    -0.753    -0.778
 0.1081    0.415     0.378    -0.765    -0.789
 0.1155    0.399     0.362    -0.776    -0.799
 0.1228    0.384     0.347    -0.785    -0.808
 0.1302    0.370     0.334    -0.794    -0.816
 0.1376    0.357     0.321    -0.802    -0.824
 0.1451    0.345     0.310    -0.810    -0.831
 0.1526    0.334     0.299    -0.816    -0.838
 0.1601    0.323     0.288    -0.823    -0.844
 0.1676    0.314     0.278    -0.829    -0.850
 0.1751    0.304     0.268    -0.834    -0.856
 0.1826    0.296     0.260    -0.840    -0.860
 0.1901    0.287     0.254    -0.844    -0.864
 0.1976    0.280     0.249    -0.849    -0.867
 0.2052    0.272     0.243    -0.853    -0.870
 0.2127    0.265     0.237    -0.857    -0.874
 0.2203    0.259     0.231    -0.861    -0.877
 0.2279    0.252     0.224    -0.865    -0.881
 0.2354    0.246     0.218    -0.869    -0.885
 0.2430    0.240     0.212    -0.872    -0.888
 0.2506    0.234     0.206    -0.875    -0.891
 0.2582    0.228     0.200    -0.879    -0.895
 0.2657    0.223     0.195    -0.882    -0.898
 0.2733    0.218     0.189    -0.884    -0.901
 0.2809    0.213     0.184    -0.887    -0.903
 0.2885    0.208     0.180    -0.890    -0.906
 0.2961    0.204     0.175    -0.892    -0.908
 0.3037    0.200     0.171    -0.895    -0.911
 0.3113    0.195     0.167    -0.897    -0.913
 0.3189    0.191     0.162    -0.899    -0.915
 0.3265    0.187     0.158    -0.902    -0.918
 0.3341    0.183     0.155    -0.904    -0.920
 0.3417    0.180     0.151    -0.906    -0.922
 0.3493    0.176     0.147    -0.908    -0.924
 0.3569    0.172     0.144    -0.910    -0.925
 0.3645    0.169     0.140    -0.912    -0.927
 0.3721    0.166     0.137    -0.914    -0.929
 0.3797    0.162     0.134    -0.915    -0.931
 0.3873    0.159     0.131    -0.917    -0.932
 0.3949    0.156     0.128    -0.919    -0.934
 0.4025    0.153     0.125    -0.920    -0.936
 0.4101    0.151     0.122    -0.922    -0.937
 0.4178    0.148     0.119    -0.923    -0.938
 0.4254    0.145     0.117    -0.925    -0.940
 0.4330    0.142     0.114    -0.926    -0.941
 0.4406    0.140     0.112    -0.928    -0.943
 0.4482    0.137     0.109    -0.929    -0.944
 0.4558    0.135     0.107    -0.930    -0.945
 0.4634    0.133     0.105    -0.931    -0.946
 0.4710    0.131     0.102    -0.933    -0.948
 0.4786    0.129     0.100    -0.934    -0.949
 0.4862    0.127     0.098    -0.935    -0.950
 0.4938    0.125     0.097    -0.936    -0.951
 0.5014    0.123     0.095    -0.936    -0.952
 0.5090    0.122     0.093    -0.937    -0.952
 0.5166    0.120     0.091    -0.938    -0.953
 0.5243    0.118     0.090    -0.939    -0.954
 0.5319    0.117     0.088    -0.940    -0.955
 0.5395    0.115     0.087    -0.941    -0.956
 0.5471    0.114     0.085    -0.941    -0.956
 0.5547    0.113     0.084    -0.942    -0.957
 0.5623    0.111     0.083    -0.943    -0.958
 0.5699    0.110     0.082    -0.943    -0.958
 0.5775    0.110     0.081    -0.944    -0.959
 0.5851    0.109     0.080    -0.944    -0.959
 0.5927    0.108     0.079    -0.944    -0.960
 0.6003    0.108     0.079    -0.945    -0.960
 0.6079    0.107     0.078    -0.945    -0.960
 0.6155    0.107     0.078    -0.945    -0.960
 0.6231    0.107     0.078    -0.945    -0.960
 0.6307    0.107     0.077    -0.945    -0.961
 0.6383    0.107     0.077    -0.945    -0.961
 0.6459    0.107     0.077    -0.945    -0.961
 0.6535    0.107     0.078    -0.945    -0.960
 0.6611    0.107     0.078    -0.945    -0.960
 0.6687    0.108     0.078    -0.945    -0.960
 0.6763    0.108     0.079    -0.944    -0.960
 0.6839    0.109     0.080    -0.944    -0.959
 0.6915    0.110     0.080    -0.943    -0.959
 0.6991    0.111     0.081    -0.943    -0.959
 0.7067    0.112     0.082    -0.942    -0.958
 0.7143    0.114     0.083    -0.942    -0.958
 0.7219    0.115     0.084    -0.941    -0.957
 0.7295    0.117     0.085    -0.940    -0.956
 0.7371    0.119     0.087    -0.939    -0.956
 0.7447    0.120     0.088    -0.938    -0.955
 0.7523    0.122     0.089    -0.937    -0.954
 0.7600    0.124     0.091    -0.936    -0.954
 0.7676    0.126     0.093    -0.935    -0.953
 0.7752    0.128     0.094    -0.934    -0.952
 0.7829    0.130     0.096    -0.933    -0.951
 0.7905    0.132     0.097    -0.932    -0.950
 0.7981    0.134     0.099    -0.931    -0.949
 0.8058    0.136     0.101    -0.930    -0.948
 0.8134    0.139     0.102    -0.928    -0.948
 0.8210    0.141     0.104    -0.927    -0.947
 0.8287    0.144     0.106    -0.926    -0.946
 0.8363    0.146     0.108    -0.924    -0.944
 0.8440    0.149     0.110    -0.923    -0.943
 0.8516    0.152     0.113    -0.921    -0.942
 0.8593    0.156     0.115    -0.919    -0.941
 0.8669    0.159     0.118    -0.917    -0.940
 0.8745    0.163     0.120    -0.915    -0.938
 0.8822    0.167     0.123    -0.913    -0.937
 0.8898    0.171     0.125    -0.911    -0.935
 0.8974    0.175     0.128    -0.908    -0.934
 0.9050    0.179     0.131    -0.906    -0.933
 0.9126    0.184     0.133    -0.904    -0.931
 0.9202    0.189     0.136    -0.901    -0.930
 0.9277    0.194     0.138    -0.898    -0.928
 0.9353    0.199     0.141    -0.895    -0.927
 0.9428    0.205     0.144    -0.892    -0.926
 0.9503    0.211     0.146    -0.888    -0.924
 0.9577    0.218     0.147    -0.885    -0.923
 0.9651    0.224     0.149    -0.881    -0.923
 0.9723    0.231     0.149    -0.877    -0.923
 0.9793    0.238     0.148    -0.873    -0.923
 0.9859    0.246     0.146    -0.868    -0.924
 0.9920    0.257     0.143    -0.862    -0.926
 0.9971    0.267     0.137    -0.857    -0.929
 1.0000    0.276     0.150    -0.851    -0.922


