xflr5 v6.61
SD6060-104-88-MP
T1_Re0.225_M0.06_N9.0_XtrTop15%_XtrBot15%
Alpha =  -3.0,  Re =   225000,  Ma = 0.0610,  ACrit = 9.0 

   x        Cpi      Cpv        Qi        Qv
 1.0000    0.264     0.170     0.858     0.911
 0.9971    0.249     0.163     0.867     0.915
 0.9920    0.236     0.160     0.874     0.916
 0.9861    0.223     0.157     0.882     0.918
 0.9795    0.210     0.152     0.889     0.921
 0.9726    0.196     0.146     0.897     0.924
 0.9655    0.184     0.140     0.903     0.927
 0.9582    0.174     0.134     0.909     0.931
 0.9508    0.165     0.128     0.914     0.934
 0.9434    0.155     0.121     0.920     0.938
 0.9360    0.144     0.114     0.925     0.942
 0.9286    0.134     0.106     0.931     0.945
 0.9211    0.124     0.099     0.936     0.949
 0.9137    0.114     0.091     0.941     0.953
 0.9061    0.105     0.084     0.946     0.957
 0.8986    0.096     0.076     0.951     0.961
 0.8911    0.087     0.069     0.956     0.965
 0.8836    0.078     0.061     0.960     0.969
 0.8760    0.069     0.053     0.965     0.973
 0.8685    0.061     0.046     0.969     0.977
 0.8609    0.052     0.038     0.973     0.981
 0.8533    0.044     0.031     0.978     0.984
 0.8458    0.036     0.023     0.982     0.988
 0.8382    0.028     0.016     0.986     0.992
 0.8306    0.019     0.009     0.990     0.996
 0.8231    0.011     0.001     0.994     0.999
 0.8155    0.003    -0.006     0.998     1.003
 0.8079   -0.004    -0.013     1.002     1.007
 0.8004   -0.012    -0.020     1.006     1.010
 0.7928   -0.019    -0.027     1.010     1.014
 0.7853   -0.027    -0.034     1.013     1.017
 0.7778   -0.034    -0.041     1.017     1.020
 0.7702   -0.041    -0.048     1.020     1.024
 0.7627   -0.048    -0.055     1.024     1.027
 0.7551   -0.055    -0.061     1.027     1.030
 0.7476   -0.062    -0.068     1.030     1.033
 0.7401   -0.068    -0.074     1.034     1.036
 0.7325   -0.075    -0.081     1.037     1.039
 0.7250   -0.082    -0.087     1.040     1.042
 0.7175   -0.088    -0.093     1.043     1.045
 0.7099   -0.094    -0.099     1.046     1.048
 0.7024   -0.101    -0.105     1.049     1.051
 0.6949   -0.107    -0.111     1.052     1.054
 0.6874   -0.113    -0.117     1.055     1.057
 0.6799   -0.119    -0.123     1.058     1.060
 0.6723   -0.125    -0.129     1.061     1.062
 0.6648   -0.130    -0.134     1.063     1.065
 0.6573   -0.136    -0.140     1.066     1.067
 0.6498   -0.141    -0.145     1.068     1.070
 0.6423   -0.147    -0.150     1.071     1.072
 0.6347   -0.152    -0.156     1.073     1.075
 0.6272   -0.157    -0.161     1.076     1.077
 0.6197   -0.162    -0.166     1.078     1.080
 0.6122   -0.168    -0.171     1.080     1.082
 0.6046   -0.173    -0.176     1.083     1.084
 0.5971   -0.178    -0.182     1.085     1.087
 0.5896   -0.183    -0.187     1.088     1.089
 0.5821   -0.189    -0.192     1.090     1.092
 0.5745   -0.194    -0.198     1.093     1.094
 0.5670   -0.200    -0.203     1.095     1.097
 0.5595   -0.205    -0.208     1.098     1.099
 0.5520   -0.211    -0.213     1.100     1.101
 0.5445   -0.216    -0.218     1.103     1.104
 0.5370   -0.222    -0.223     1.105     1.106
 0.5295   -0.226    -0.228     1.107     1.108
 0.5221   -0.231    -0.233     1.109     1.110
 0.5146   -0.235    -0.237     1.111     1.112
 0.5071   -0.239    -0.241     1.113     1.114
 0.4996   -0.242    -0.245     1.114     1.115
 0.4921   -0.246    -0.248     1.116     1.117
 0.4847   -0.249    -0.251     1.117     1.118
 0.4772   -0.251    -0.254     1.118     1.119
 0.4697   -0.254    -0.256     1.119     1.121
 0.4622   -0.256    -0.258     1.120     1.122
 0.4547   -0.257    -0.260     1.121     1.122
 0.4473   -0.259    -0.262     1.122     1.123
 0.4398   -0.260    -0.263     1.122     1.124
 0.4323   -0.261    -0.264     1.123     1.124
 0.4248   -0.262    -0.265     1.123     1.125
 0.4173   -0.263    -0.266     1.123     1.125
 0.4098   -0.263    -0.266     1.124     1.125
 0.4024   -0.263    -0.267     1.124     1.125
 0.3949   -0.263    -0.267     1.124     1.125
 0.3874   -0.263    -0.266     1.124     1.125
 0.3799   -0.262    -0.266     1.123     1.125
 0.3724   -0.262    -0.265     1.123     1.125
 0.3649   -0.261    -0.265     1.123     1.124
 0.3575   -0.260    -0.264     1.122     1.124
 0.3500   -0.259    -0.262     1.122     1.123
 0.3425   -0.257    -0.261     1.121     1.123
 0.3350   -0.256    -0.259     1.120     1.122
 0.3276   -0.254    -0.258     1.120     1.121
 0.3201   -0.252    -0.256     1.119     1.120
 0.3126   -0.250    -0.253     1.118     1.119
 0.3051   -0.247    -0.251     1.117     1.118
 0.2977   -0.245    -0.249     1.115     1.117
 0.2902   -0.242    -0.246     1.114     1.116
 0.2828   -0.239    -0.243     1.113     1.115
 0.2753   -0.237    -0.240     1.112     1.113
 0.2679   -0.233    -0.236     1.110     1.112
 0.2604   -0.230    -0.232     1.109     1.110
 0.2530   -0.226    -0.228     1.107     1.108
 0.2456   -0.222    -0.224     1.105     1.106
 0.2382   -0.218    -0.219     1.103     1.104
 0.2308   -0.213    -0.213     1.101     1.101
 0.2234   -0.208    -0.208     1.099     1.099
 0.2160   -0.203    -0.202     1.096     1.096
 0.2087   -0.197    -0.196     1.094     1.093
 0.2013   -0.190    -0.190     1.091     1.091
 0.1940   -0.184    -0.186     1.088     1.089
 0.1867   -0.176    -0.182     1.084     1.087
 0.1794   -0.168    -0.177     1.081     1.085
 0.1721   -0.159    -0.171     1.077     1.082
 0.1649   -0.150    -0.161     1.072     1.077
 0.1576   -0.140    -0.149     1.068     1.072
 0.1504   -0.129    -0.137     1.062     1.066
 0.1432   -0.117    -0.125     1.057     1.061
 0.1361   -0.104    -0.112     1.051     1.054
 0.1290   -0.090    -0.097     1.044     1.048
 0.1219   -0.075    -0.082     1.037     1.040
 0.1149   -0.058    -0.065     1.029     1.032
 0.1079   -0.039    -0.046     1.019     1.023
 0.1009   -0.019    -0.026     1.009     1.013
 0.0941    0.003    -0.003     0.998     1.002
 0.0873    0.029     0.022     0.986     0.989
 0.0805    0.057     0.050     0.971     0.975
 0.0739    0.088     0.081     0.955     0.959
 0.0674    0.123     0.116     0.937     0.940
 0.0610    0.162     0.155     0.915     0.919
 0.0548    0.207     0.200     0.891     0.895
 0.0487    0.257     0.249     0.862     0.867
 0.0428    0.313     0.306     0.829     0.834
 0.0371    0.376     0.368     0.790     0.795
 0.0317    0.442     0.434     0.747     0.753
 0.0269    0.512     0.504     0.699     0.704
 0.0226    0.589     0.581     0.642     0.648
 0.0187    0.669     0.661     0.576     0.583
 0.0153    0.749     0.742     0.501     0.509
 0.0124    0.823     0.816     0.422     0.430
 0.0100    0.886     0.879     0.339     0.349
 0.0079    0.936     0.930     0.255     0.266
 0.0062    0.973     0.968     0.168     0.181
 0.0048    0.996     0.994     0.068     0.082
 0.0037    0.999     1.000    -0.045    -0.028
 0.0028    0.973     0.979    -0.168    -0.148
 0.0020    0.911     0.924    -0.299    -0.278
 0.0014    0.807     0.828    -0.440    -0.415
 0.0009    0.644     0.678    -0.597    -0.568
 0.0005    0.406     0.458    -0.771    -0.737
 0.0003    0.071     0.150    -0.964    -0.922
 0.0001   -0.377    -0.260    -1.173    -1.122
 0.0001   -0.941    -0.768    -1.392    -1.329
 0.0002   -1.570    -1.323    -1.602    -1.523
 0.0004   -2.025    -1.747    -1.737    -1.656
 0.0007   -2.199    -1.941    -1.786    -1.713
 0.0012   -2.190    -1.963    -1.784    -1.719
 0.0019   -2.062    -1.888    -1.748    -1.697
 0.0026   -1.874    -1.767    -1.693    -1.662
 0.0036   -1.662    -1.635    -1.630    -1.622
 0.0049   -1.463    -1.510    -1.568    -1.583
 0.0064   -1.380    -1.405    -1.541    -1.549
 0.0083   -1.344    -1.321    -1.530    -1.522
 0.0106   -1.302    -1.253    -1.516    -1.500
 0.0134   -1.233    -1.191    -1.493    -1.479
 0.0163   -1.158    -1.133    -1.468    -1.459
 0.0195   -1.102    -1.081    -1.449    -1.442
 0.0230   -1.047    -1.031    -1.430    -1.424
 0.0272   -0.988    -0.979    -1.409    -1.406
 0.0323   -0.929    -0.926    -1.388    -1.387
 0.0384   -0.877    -0.873    -1.369    -1.368
 0.0451   -0.825    -0.824    -1.350    -1.350
 0.0518   -0.778    -0.782    -1.333    -1.334
 0.0583   -0.741    -0.747    -1.319    -1.321
 0.0650   -0.709    -0.715    -1.307    -1.309
 0.0719   -0.679    -0.686    -1.295    -1.298
 0.0789   -0.651    -0.660    -1.284    -1.288
 0.0862   -0.626    -0.636    -1.274    -1.278
 0.0935   -0.602    -0.613    -1.265    -1.270
 0.1008   -0.581    -0.593    -1.257    -1.262
 0.1081   -0.561    -0.575    -1.249    -1.254
 0.1155   -0.543    -0.559    -1.242    -1.248
 0.1228   -0.527    -0.544    -1.235    -1.242
 0.1302   -0.512    -0.530    -1.229    -1.237
 0.1376   -0.498    -0.518    -1.223    -1.232
 0.1451   -0.485    -0.508    -1.218    -1.228
 0.1526   -0.473    -0.497    -1.213    -1.223
 0.1601   -0.461    -0.478    -1.208    -1.215
 0.1676   -0.450    -0.458    -1.204    -1.207
 0.1751   -0.439    -0.438    -1.199    -1.199
 0.1826   -0.429    -0.420    -1.195    -1.191
 0.1901   -0.420    -0.404    -1.191    -1.185
 0.1976   -0.411    -0.392    -1.187    -1.180
 0.2052   -0.402    -0.382    -1.184    -1.175
 0.2127   -0.394    -0.374    -1.180    -1.172
 0.2203   -0.386    -0.367    -1.177    -1.169
 0.2279   -0.379    -0.361    -1.174    -1.166
 0.2354   -0.372    -0.355    -1.171    -1.164
 0.2430   -0.365    -0.350    -1.168    -1.162
 0.2506   -0.359    -0.345    -1.165    -1.159
 0.2582   -0.353    -0.340    -1.163    -1.157
 0.2657   -0.347    -0.335    -1.160    -1.155
 0.2733   -0.341    -0.330    -1.158    -1.153
 0.2809   -0.336    -0.325    -1.155    -1.151
 0.2885   -0.330    -0.320    -1.153    -1.149
 0.2961   -0.325    -0.316    -1.151    -1.147
 0.3037   -0.320    -0.311    -1.148    -1.145
 0.3113   -0.315    -0.307    -1.146    -1.143
 0.3189   -0.310    -0.302    -1.144    -1.141
 0.3265   -0.305    -0.298    -1.142    -1.139
 0.3341   -0.301    -0.293    -1.140    -1.137
 0.3417   -0.296    -0.289    -1.138    -1.135
 0.3493   -0.292    -0.285    -1.136    -1.133
 0.3569   -0.288    -0.281    -1.134    -1.131
 0.3645   -0.283    -0.277    -1.133    -1.130
 0.3721   -0.279    -0.272    -1.131    -1.128
 0.3797   -0.275    -0.268    -1.129    -1.126
 0.3873   -0.271    -0.264    -1.127    -1.124
 0.3949   -0.267    -0.261    -1.126    -1.123
 0.4025   -0.264    -0.257    -1.124    -1.121
 0.4101   -0.260    -0.253    -1.122    -1.119
 0.4178   -0.256    -0.250    -1.121    -1.118
 0.4254   -0.252    -0.246    -1.119    -1.116
 0.4330   -0.249    -0.243    -1.117    -1.115
 0.4406   -0.245    -0.239    -1.116    -1.113
 0.4482   -0.242    -0.236    -1.114    -1.111
 0.4558   -0.238    -0.232    -1.113    -1.110
 0.4634   -0.235    -0.229    -1.111    -1.108
 0.4710   -0.231    -0.225    -1.109    -1.107
 0.4786   -0.227    -0.222    -1.108    -1.105
 0.4862   -0.224    -0.218    -1.106    -1.103
 0.4938   -0.220    -0.214    -1.104    -1.102
 0.5014   -0.216    -0.211    -1.103    -1.100
 0.5090   -0.212    -0.207    -1.101    -1.099
 0.5166   -0.209    -0.204    -1.099    -1.097
 0.5243   -0.205    -0.200    -1.098    -1.095
 0.5319   -0.202    -0.196    -1.096    -1.094
 0.5395   -0.198    -0.193    -1.094    -1.092
 0.5471   -0.194    -0.189    -1.093    -1.090
 0.5547   -0.191    -0.186    -1.091    -1.089
 0.5623   -0.187    -0.182    -1.089    -1.087
 0.5699   -0.183    -0.178    -1.087    -1.085
 0.5775   -0.179    -0.174    -1.086    -1.083
 0.5851   -0.175    -0.170    -1.084    -1.082
 0.5927   -0.171    -0.166    -1.082    -1.080
 0.6003   -0.166    -0.162    -1.080    -1.078
 0.6079   -0.162    -0.158    -1.078    -1.076
 0.6155   -0.158    -0.153    -1.076    -1.074
 0.6231   -0.153    -0.149    -1.074    -1.072
 0.6307   -0.149    -0.144    -1.072    -1.070
 0.6383   -0.144    -0.140    -1.069    -1.067
 0.6459   -0.139    -0.135    -1.067    -1.065
 0.6535   -0.134    -0.130    -1.065    -1.063
 0.6611   -0.130    -0.126    -1.063    -1.061
 0.6687   -0.125    -0.121    -1.060    -1.059
 0.6763   -0.119    -0.116    -1.058    -1.056
 0.6839   -0.114    -0.111    -1.055    -1.054
 0.6915   -0.109    -0.105    -1.053    -1.051
 0.6991   -0.103    -0.100    -1.050    -1.049
 0.7067   -0.097    -0.095    -1.047    -1.046
 0.7143   -0.092    -0.089    -1.045    -1.043
 0.7219   -0.086    -0.083    -1.042    -1.041
 0.7295   -0.080    -0.078    -1.039    -1.038
 0.7371   -0.074    -0.072    -1.036    -1.035
 0.7447   -0.067    -0.066    -1.033    -1.032
 0.7523   -0.061    -0.060    -1.030    -1.030
 0.7600   -0.055    -0.054    -1.027    -1.027
 0.7676   -0.049    -0.048    -1.024    -1.024
 0.7752   -0.042    -0.042    -1.021    -1.021
 0.7829   -0.036    -0.036    -1.018    -1.018
 0.7905   -0.030    -0.030    -1.015    -1.015
 0.7981   -0.024    -0.024    -1.012    -1.012
 0.8058   -0.017    -0.018    -1.009    -1.009
 0.8134   -0.011    -0.011    -1.005    -1.006
 0.8210   -0.004    -0.005    -1.002    -1.003
 0.8287    0.003     0.001    -0.999    -0.999
 0.8363    0.010     0.008    -0.995    -0.996
 0.8440    0.017     0.015    -0.992    -0.993
 0.8516    0.024     0.021    -0.988    -0.989
 0.8593    0.032     0.028    -0.984    -0.986
 0.8669    0.040     0.036    -0.980    -0.982
 0.8745    0.048     0.043    -0.976    -0.978
 0.8822    0.057     0.050    -0.971    -0.975
 0.8898    0.065     0.057    -0.967    -0.971
 0.8974    0.074     0.065    -0.962    -0.967
 0.9050    0.082     0.072    -0.958    -0.963
 0.9126    0.091     0.080    -0.953    -0.959
 0.9202    0.101     0.087    -0.948    -0.955
 0.9277    0.111     0.095    -0.943    -0.951
 0.9353    0.121     0.103    -0.938    -0.947
 0.9428    0.132     0.111    -0.932    -0.943
 0.9503    0.143     0.118    -0.926    -0.939
 0.9577    0.155     0.126    -0.920    -0.935
 0.9651    0.166     0.133    -0.913    -0.931
 0.9723    0.179     0.140    -0.906    -0.927
 0.9793    0.193     0.147    -0.899    -0.924
 0.9859    0.207     0.153    -0.891    -0.921
 0.9920    0.225     0.158    -0.881    -0.918
 0.9971    0.243     0.163    -0.870    -0.915
 1.0000    0.264     0.170    -0.858    -0.911


