xflr5 v6.61
SD6060-104-88-MP
T1_Re0.225_M0.06_N9.0_XtrTop15%_XtrBot15%
Alpha =  12.0,  Re =   225000,  Ma = 0.0610,  ACrit = 9.0 

   x        Cpi      Cpv        Qi        Qv
 1.0000    0.304    -0.050     0.835     1.025
 0.9971    0.270    -0.051     0.855     1.025
 0.9920    0.246    -0.052     0.869     1.025
 0.9861    0.222    -0.053     0.882     1.026
 0.9795    0.199    -0.054     0.895     1.027
 0.9726    0.177    -0.055     0.908     1.027
 0.9655    0.156    -0.056     0.919     1.028
 0.9582    0.138    -0.057     0.929     1.028
 0.9508    0.120    -0.059     0.938     1.029
 0.9434    0.102    -0.060     0.948     1.029
 0.9360    0.084    -0.061     0.957     1.030
 0.9286    0.066    -0.062     0.967     1.030
 0.9211    0.048    -0.063     0.976     1.031
 0.9137    0.031    -0.064     0.984     1.031
 0.9061    0.014    -0.065     0.993     1.032
 0.8986   -0.003    -0.065     1.001     1.032
 0.8911   -0.019    -0.066     1.010     1.032
 0.8836   -0.036    -0.066     1.018     1.033
 0.8760   -0.052    -0.067     1.026     1.033
 0.8685   -0.068    -0.068     1.033     1.033
 0.8609   -0.084    -0.069     1.041     1.034
 0.8533   -0.101    -0.071     1.049     1.035
 0.8458   -0.117    -0.073     1.057     1.036
 0.8382   -0.133    -0.076     1.064     1.037
 0.8306   -0.149    -0.079     1.072     1.039
 0.8231   -0.165    -0.082     1.079     1.040
 0.8155   -0.181    -0.086     1.087     1.042
 0.8079   -0.197    -0.090     1.094     1.044
 0.8004   -0.213    -0.094     1.101     1.046
 0.7928   -0.228    -0.099     1.108     1.048
 0.7853   -0.244    -0.104     1.115     1.051
 0.7778   -0.260    -0.109     1.122     1.053
 0.7702   -0.275    -0.115     1.129     1.056
 0.7627   -0.291    -0.121     1.136     1.059
 0.7551   -0.306    -0.128     1.143     1.062
 0.7476   -0.322    -0.135     1.149     1.065
 0.7401   -0.338    -0.142     1.156     1.068
 0.7325   -0.353    -0.149     1.163     1.072
 0.7250   -0.369    -0.157     1.170     1.076
 0.7175   -0.385    -0.166     1.176     1.079
 0.7099   -0.401    -0.174     1.183     1.083
 0.7024   -0.416    -0.183     1.190     1.088
 0.6949   -0.432    -0.193     1.196     1.092
 0.6874   -0.448    -0.203     1.203     1.096
 0.6799   -0.464    -0.213     1.209     1.101
 0.6723   -0.480    -0.223     1.216     1.106
 0.6648   -0.495    -0.234     1.222     1.111
 0.6573   -0.511    -0.245     1.229     1.116
 0.6498   -0.526    -0.257     1.235     1.121
 0.6423   -0.542    -0.269     1.241     1.126
 0.6347   -0.558    -0.281     1.248     1.132
 0.6272   -0.574    -0.294     1.254     1.137
 0.6197   -0.590    -0.307     1.261     1.143
 0.6122   -0.607    -0.320     1.267     1.149
 0.6046   -0.623    -0.334     1.274     1.155
 0.5971   -0.640    -0.348     1.280     1.161
 0.5896   -0.657    -0.362     1.287     1.167
 0.5821   -0.675    -0.377     1.294     1.173
 0.5745   -0.693    -0.392     1.301     1.179
 0.5670   -0.711    -0.407     1.308     1.186
 0.5595   -0.730    -0.423     1.315     1.192
 0.5520   -0.749    -0.439     1.322     1.199
 0.5445   -0.768    -0.455     1.329     1.206
 0.5370   -0.787    -0.471     1.336     1.212
 0.5295   -0.805    -0.488     1.343     1.219
 0.5221   -0.824    -0.504     1.350     1.226
 0.5146   -0.842    -0.521     1.356     1.233
 0.5071   -0.860    -0.538     1.363     1.240
 0.4996   -0.878    -0.555     1.370     1.246
 0.4921   -0.896    -0.572     1.376     1.253
 0.4847   -0.914    -0.589     1.382     1.260
 0.4772   -0.931    -0.606     1.389     1.267
 0.4697   -0.949    -0.623     1.395     1.274
 0.4622   -0.966    -0.641     1.401     1.280
 0.4547   -0.984    -0.658     1.407     1.287
 0.4473   -1.001    -0.675     1.414     1.294
 0.4398   -1.019    -0.693     1.420     1.300
 0.4323   -1.036    -0.710     1.426     1.307
 0.4248   -1.053    -0.728     1.432     1.314
 0.4173   -1.071    -0.745     1.438     1.320
 0.4098   -1.089    -0.763     1.444     1.327
 0.4024   -1.106    -0.780     1.450     1.334
 0.3949   -1.124    -0.798     1.456     1.340
 0.3874   -1.142    -0.816     1.463     1.347
 0.3799   -1.161    -0.834     1.469     1.353
 0.3724   -1.179    -0.852     1.475     1.360
 0.3649   -1.198    -0.870     1.481     1.367
 0.3575   -1.217    -0.889     1.488     1.373
 0.3500   -1.237    -0.907     1.494     1.380
 0.3425   -1.257    -0.926     1.501     1.387
 0.3350   -1.277    -0.945     1.508     1.394
 0.3276   -1.297    -0.964     1.514     1.401
 0.3201   -1.318    -0.984     1.521     1.408
 0.3126   -1.340    -1.004     1.528     1.415
 0.3051   -1.362    -1.024     1.536     1.422
 0.2977   -1.385    -1.045     1.543     1.429
 0.2902   -1.409    -1.066     1.550     1.436
 0.2828   -1.433    -1.088     1.558     1.444
 0.2753   -1.458    -1.110     1.566     1.452
 0.2679   -1.485    -1.133     1.575     1.459
 0.2604   -1.512    -1.156     1.583     1.467
 0.2530   -1.539    -1.180     1.592     1.475
 0.2456   -1.568    -1.205     1.601     1.484
 0.2382   -1.598    -1.230     1.610     1.492
 0.2308   -1.629    -1.256     1.620     1.501
 0.2234   -1.661    -1.283     1.630     1.510
 0.2160   -1.694    -1.311     1.640     1.519
 0.2087   -1.729    -1.339     1.650     1.528
 0.2013   -1.765    -1.369     1.661     1.538
 0.1940   -1.803    -1.400     1.672     1.548
 0.1867   -1.843    -1.432     1.684     1.558
 0.1794   -1.884    -1.465     1.696     1.568
 0.1721   -1.927    -1.499     1.709     1.579
 0.1649   -1.973    -1.535     1.722     1.591
 0.1576   -2.022    -1.573     1.736     1.603
 0.1504   -2.073    -1.613     1.751     1.615
 0.1432   -2.126    -1.654     1.766     1.627
 0.1361   -2.184    -1.698     1.782     1.641
 0.1290   -2.246    -1.744     1.799     1.655
 0.1219   -2.312    -1.793     1.817     1.669
 0.1149   -2.382    -1.845     1.836     1.685
 0.1079   -2.457    -1.900     1.856     1.701
 0.1009   -2.538    -1.958     1.878     1.718
 0.0941   -2.628    -2.021     1.902     1.736
 0.0873   -2.723    -2.088     1.926     1.755
 0.0805   -2.826    -2.160     1.953     1.775
 0.0739   -2.940    -2.238     1.982     1.797
 0.0674   -3.065    -2.324     2.013     1.821
 0.0610   -3.201    -2.419     2.046     1.846
 0.0548   -3.350    -2.529     2.082     1.876
 0.0487   -3.520    -2.664     2.122     1.911
 0.0428   -3.712    -2.838     2.166     1.956
 0.0371   -3.927    -3.077     2.215     2.016
 0.0317   -4.190    -3.419     2.273     2.098
 0.0269   -4.499    -3.912     2.339     2.211
 0.0226   -4.811    -4.520     2.404     2.344
 0.0187   -5.114    -5.273     2.466     2.497
 0.0153   -5.398    -5.307     2.522     2.504
 0.0124   -5.716    -5.337     2.584     2.510
 0.0100   -6.107    -5.363     2.657     2.515
 0.0079   -6.659    -5.386     2.758     2.520
 0.0062   -7.576    -5.407     2.917     2.524
 0.0048   -8.531    -5.434     3.074     2.529
 0.0037   -9.366    -5.475     3.204     2.537
 0.0028  -10.040    -5.540     3.306     2.550
 0.0020  -10.569    -5.641     3.383     2.569
 0.0014  -11.061    -5.797     3.454     2.599
 0.0009  -11.734    -6.026     3.548     2.642
 0.0005  -12.537    -6.334     3.656     2.699
 0.0003  -13.402    -6.713     3.770     2.767
 0.0001  -14.220    -7.084     3.874     2.833
 0.0001  -14.767    -7.296     3.942     2.869
 0.0002  -14.669    -7.096     3.930     2.835
 0.0004  -13.053    -6.205     3.725     2.675
 0.0007  -10.488    -4.869     3.371     2.416
 0.0012   -7.941    -3.519     2.978     2.122
 0.0019   -5.729    -2.343     2.586     1.826
 0.0026   -3.944    -1.398     2.219     1.547
 0.0036   -2.557    -0.670     1.883     1.291
 0.0049   -1.520    -0.140     1.586     1.068
 0.0064   -0.821     0.224     1.349     0.881
 0.0083   -0.286     0.500     1.134     0.708
 0.0106    0.138     0.707     0.928     0.542
 0.0134    0.449     0.846     0.743     0.393
 0.0163    0.655     0.928     0.588     0.270
 0.0195    0.790     0.973     0.459     0.166
 0.0230    0.883     0.996     0.343     0.073
 0.0272    0.947     1.001     0.233    -0.016
 0.0323    0.985     0.990     0.127    -0.102
 0.0384    1.000     0.967     0.027    -0.183
 0.0451    0.997     0.937    -0.059    -0.253
 0.0518    0.985     0.906    -0.128    -0.309
 0.0583    0.967     0.875    -0.185    -0.355
 0.0650    0.946     0.845    -0.233    -0.395
 0.0719    0.925     0.816    -0.276    -0.430
 0.0789    0.902     0.788    -0.315    -0.461
 0.0862    0.879     0.761    -0.349    -0.489
 0.0935    0.857     0.736    -0.380    -0.514
 0.1008    0.835     0.713    -0.407    -0.537
 0.1081    0.815     0.691    -0.431    -0.557
 0.1155    0.795     0.670    -0.453    -0.575
 0.1228    0.776     0.651    -0.474    -0.592
 0.1302    0.758     0.632    -0.492    -0.607
 0.1376    0.741     0.614    -0.510    -0.622
 0.1451    0.725     0.598    -0.525    -0.635
 0.1526    0.709     0.582    -0.540    -0.647
 0.1601    0.694     0.567    -0.554    -0.659
 0.1676    0.679     0.553    -0.567    -0.670
 0.1751    0.666     0.539    -0.579    -0.680
 0.1826    0.652     0.525    -0.590    -0.689
 0.1901    0.639     0.513    -0.601    -0.699
 0.1976    0.627     0.501    -0.611    -0.707
 0.2052    0.615     0.491    -0.621    -0.714
 0.2127    0.604     0.480    -0.630    -0.721
 0.2203    0.593     0.470    -0.639    -0.728
 0.2279    0.582     0.460    -0.647    -0.735
 0.2354    0.572     0.450    -0.655    -0.742
 0.2430    0.562     0.440    -0.662    -0.749
 0.2506    0.552     0.430    -0.670    -0.755
 0.2582    0.543     0.421    -0.677    -0.761
 0.2657    0.534     0.412    -0.683    -0.767
 0.2733    0.525     0.403    -0.690    -0.773
 0.2809    0.516     0.395    -0.696    -0.778
 0.2885    0.508     0.386    -0.702    -0.784
 0.2961    0.500     0.379    -0.708    -0.789
 0.3037    0.492     0.371    -0.713    -0.794
 0.3113    0.484     0.363    -0.718    -0.798
 0.3189    0.477     0.356    -0.724    -0.803
 0.3265    0.470     0.349    -0.729    -0.807
 0.3341    0.463     0.342    -0.734    -0.812
 0.3417    0.456     0.335    -0.738    -0.816
 0.3493    0.449     0.328    -0.743    -0.820
 0.3569    0.442     0.321    -0.747    -0.824
 0.3645    0.436     0.315    -0.752    -0.828
 0.3721    0.429     0.309    -0.756    -0.832
 0.3797    0.423     0.302    -0.760    -0.835
 0.3873    0.417     0.296    -0.764    -0.839
 0.3949    0.411     0.290    -0.768    -0.843
 0.4025    0.405     0.285    -0.772    -0.846
 0.4101    0.400     0.279    -0.775    -0.849
 0.4178    0.394     0.273    -0.779    -0.853
 0.4254    0.389     0.268    -0.782    -0.856
 0.4330    0.383     0.262    -0.786    -0.859
 0.4406    0.378     0.257    -0.789    -0.862
 0.4482    0.373     0.252    -0.792    -0.865
 0.4558    0.368     0.246    -0.796    -0.868
 0.4634    0.363     0.241    -0.799    -0.871
 0.4710    0.358     0.236    -0.802    -0.874
 0.4786    0.353     0.232    -0.804    -0.877
 0.4862    0.349     0.227    -0.807    -0.879
 0.4938    0.344     0.222    -0.810    -0.882
 0.5014    0.340     0.218    -0.813    -0.885
 0.5090    0.336     0.213    -0.815    -0.887
 0.5166    0.332     0.209    -0.818    -0.890
 0.5243    0.328     0.205    -0.820    -0.892
 0.5319    0.324     0.200    -0.823    -0.894
 0.5395    0.320     0.196    -0.825    -0.897
 0.5471    0.316     0.192    -0.827    -0.899
 0.5547    0.312     0.188    -0.830    -0.901
 0.5623    0.308     0.184    -0.832    -0.904
 0.5699    0.305     0.180    -0.834    -0.906
 0.5775    0.302     0.176    -0.836    -0.908
 0.5851    0.298     0.173    -0.838    -0.910
 0.5927    0.295     0.169    -0.840    -0.912
 0.6003    0.292     0.166    -0.842    -0.914
 0.6079    0.289     0.162    -0.843    -0.915
 0.6155    0.287     0.159    -0.845    -0.917
 0.6231    0.284     0.156    -0.846    -0.919
 0.6307    0.281     0.153    -0.848    -0.920
 0.6383    0.279     0.150    -0.849    -0.922
 0.6459    0.277     0.147    -0.851    -0.924
 0.6535    0.274     0.144    -0.852    -0.925
 0.6611    0.272     0.142    -0.853    -0.927
 0.6687    0.270     0.139    -0.854    -0.928
 0.6763    0.269     0.137    -0.855    -0.929
 0.6839    0.267     0.134    -0.856    -0.931
 0.6915    0.265     0.132    -0.857    -0.932
 0.6991    0.264     0.130    -0.858    -0.933
 0.7067    0.263     0.128    -0.859    -0.934
 0.7143    0.261     0.126    -0.860    -0.935
 0.7219    0.260     0.124    -0.860    -0.936
 0.7295    0.259     0.122    -0.861    -0.937
 0.7371    0.259     0.120    -0.861    -0.938
 0.7447    0.258     0.119    -0.862    -0.939
 0.7523    0.257     0.117    -0.862    -0.940
 0.7600    0.257     0.115    -0.862    -0.941
 0.7676    0.256     0.114    -0.863    -0.942
 0.7752    0.256     0.112    -0.863    -0.942
 0.7829    0.255     0.110    -0.863    -0.943
 0.7905    0.255     0.108    -0.864    -0.944
 0.7981    0.254     0.107    -0.864    -0.945
 0.8058    0.254     0.105    -0.864    -0.946
 0.8134    0.254     0.103    -0.864    -0.947
 0.8210    0.254     0.101    -0.864    -0.948
 0.8287    0.254     0.100    -0.864    -0.949
 0.8363    0.254     0.098    -0.864    -0.950
 0.8440    0.254     0.096    -0.864    -0.951
 0.8516    0.255     0.094    -0.864    -0.952
 0.8593    0.255     0.093    -0.863    -0.953
 0.8669    0.256     0.091    -0.863    -0.954
 0.8745    0.258     0.089    -0.862    -0.955
 0.8822    0.259     0.087    -0.861    -0.956
 0.8898    0.260     0.085    -0.860    -0.957
 0.8974    0.261     0.082    -0.860    -0.958
 0.9050    0.263     0.079    -0.859    -0.960
 0.9126    0.264     0.076    -0.858    -0.961
 0.9202    0.266     0.073    -0.857    -0.963
 0.9277    0.268     0.069    -0.856    -0.965
 0.9353    0.271     0.065    -0.854    -0.967
 0.9428    0.273     0.060    -0.853    -0.970
 0.9503    0.276     0.053    -0.851    -0.973
 0.9577    0.279     0.046    -0.849    -0.977
 0.9651    0.282     0.036    -0.848    -0.982
 0.9723    0.285     0.023    -0.846    -0.988
 0.9793    0.288     0.007    -0.844    -0.997
 0.9859    0.292    -0.015    -0.842    -1.008
 0.9920    0.298    -0.043    -0.838    -1.021
 0.9971    0.303    -0.082    -0.835    -1.040
 1.0000    0.304    -0.050    -0.835    -1.025


