xflr5 v6.61

 Calculated polar for: NACA 642-015 AIRFOIL

 1 1 Reynolds number fixed          Mach number fixed         

 xtrf =   0.050 (top)        0.050 (bottom)
 Mach =   0.061     Re =     0.225 e 6     Ncrit =   5.000

  alpha     CL        CD       CDp       Cm    Top Xtr Bot Xtr   Cpmin    Chinge    XCp    
 ------- -------- --------- --------- -------- ------- ------- -------- --------- ---------
  -9.700  -0.7363   0.02820   0.01857  -0.0417  0.0500  0.0222  -3.9823   0.0000   0.0000   0.0000   0.1812
  -9.600  -0.7321   0.02781   0.01815  -0.0410  0.0500  0.0224  -3.9475   0.0000   0.0000   0.0000   0.1819
  -9.500  -0.7281   0.02743   0.01773  -0.0403  0.0500  0.0226  -3.9128   0.0000   0.0000   0.0000   0.1827
  -9.400  -0.7243   0.02705   0.01731  -0.0396  0.0500  0.0228  -3.8780   0.0000   0.0000   0.0000   0.1835
  -9.300  -0.7206   0.02668   0.01690  -0.0389  0.0500  0.0230  -3.8433   0.0000   0.0000   0.0000   0.1844
  -9.200  -0.7172   0.02631   0.01650  -0.0381  0.0500  0.0233  -3.8088   0.0000   0.0000   0.0000   0.1853
  -9.100  -0.7140   0.02595   0.01610  -0.0373  0.0500  0.0235  -3.7743   0.0000   0.0000   0.0000   0.1863
  -9.000  -0.7109   0.02559   0.01570  -0.0365  0.0500  0.0237  -3.7393   0.0000   0.0000   0.0000   0.1874
  -8.900  -0.7076   0.02525   0.01533  -0.0357  0.0500  0.0239  -3.7030   0.0000   0.0000   0.0000   0.1884
  -8.800  -0.7041   0.02493   0.01497  -0.0349  0.0500  0.0241  -3.6655   0.0000   0.0000   0.0000   0.1895
  -8.700  -0.7006   0.02461   0.01462  -0.0340  0.0500  0.0244  -3.6271   0.0000   0.0000   0.0000   0.1905
  -8.600  -0.6970   0.02431   0.01428  -0.0332  0.0500  0.0246  -3.5877   0.0000   0.0000   0.0000   0.1916
  -8.500  -0.6935   0.02402   0.01396  -0.0324  0.0500  0.0248  -3.5467   0.0000   0.0000   0.0000   0.1927
  -8.400  -0.6922   0.02362   0.01348  -0.0312  0.0500  0.0253  -3.5153   0.0000   0.0000   0.0000   0.1944
  -8.300  -0.6947   0.02306   0.01287  -0.0296  0.0500  0.0261  -3.5146   0.0000   0.0000   0.0000   0.1971
  -8.200  -0.6963   0.02257   0.01232  -0.0280  0.0500  0.0270  -3.5078   0.0000   0.0000   0.0000   0.1996
  -8.100  -0.6973   0.02214   0.01183  -0.0264  0.0500  0.0279  -3.4956   0.0000   0.0000   0.0000   0.2021
  -8.000  -0.6982   0.02175   0.01139  -0.0249  0.0500  0.0289  -3.4798   0.0000   0.0000   0.0000   0.2045
  -7.900  -0.6986   0.02139   0.01100  -0.0233  0.0500  0.0299  -3.4602   0.0000   0.0000   0.0000   0.2069
  -7.800  -0.6980   0.02109   0.01065  -0.0219  0.0500  0.0310  -3.4354   0.0000   0.0000   0.0000   0.2091
  -7.700  -0.6970   0.02081   0.01035  -0.0204  0.0500  0.0321  -3.4075   0.0000   0.0000   0.0000   0.2113
  -7.600  -0.6960   0.02056   0.01008  -0.0190  0.0500  0.0333  -3.3776   0.0000   0.0000   0.0000   0.2135
  -7.500  -0.6949   0.02035   0.00985  -0.0175  0.0500  0.0344  -3.3464   0.0000   0.0000   0.0000   0.2157
  -7.400  -0.6934   0.02016   0.00964  -0.0160  0.0500  0.0355  -3.3130   0.0000   0.0000   0.0000   0.2179
  -7.300  -0.6917   0.01999   0.00945  -0.0145  0.0500  0.0367  -3.2784   0.0000   0.0000   0.0000   0.2201
  -7.200  -0.6892   0.01982   0.00927  -0.0132  0.0500  0.0379  -3.2410   0.0000   0.0000   0.0000   0.2221
  -7.100  -0.6852   0.01964   0.00907  -0.0121  0.0500  0.0393  -3.1989   0.0000   0.0000   0.0000   0.2236
  -7.000  -0.6805   0.01946   0.00887  -0.0112  0.0500  0.0407  -3.1542   0.0000   0.0000   0.0000   0.2250
  -6.900  -0.6752   0.01929   0.00867  -0.0103  0.0500  0.0423  -3.1077   0.0000   0.0000   0.0000   0.2262
  -6.800  -0.6695   0.01912   0.00848  -0.0095  0.0500  0.0439  -3.0595   0.0000   0.0000   0.0000   0.2274
  -6.700  -0.6633   0.01896   0.00829  -0.0088  0.0500  0.0457  -3.0098   0.0000   0.0000   0.0000   0.2284
  -6.600  -0.6567   0.01881   0.00812  -0.0082  0.0500  0.0477  -2.9579   0.0000   0.0000   0.0000   0.2294
  -6.500  -0.6497   0.01867   0.00794  -0.0076  0.0500  0.0498  -2.9041   0.0000   0.0000   0.0000   0.2302
  -6.400  -0.6422   0.01854   0.00776  -0.0071  0.0500  0.0500  -2.8539   0.0000   0.0000   0.0000   0.2310
  -6.300  -0.6344   0.01842   0.00760  -0.0066  0.0500  0.0500  -2.8015   0.0000   0.0000   0.0000   0.2317
  -6.200  -0.6262   0.01832   0.00744  -0.0061  0.0500  0.0500  -2.7474   0.0000   0.0000   0.0000   0.2324
  -6.100  -0.6179   0.01821   0.00729  -0.0058  0.0500  0.0500  -2.6922   0.0000   0.0000   0.0000   0.2330
  -6.000  -0.6094   0.01812   0.00714  -0.0054  0.0500  0.0500  -2.6367   0.0000   0.0000   0.0000   0.2335
  -5.900  -0.6008   0.01802   0.00701  -0.0050  0.0500  0.0500  -2.5821   0.0000   0.0000   0.0000   0.2341
  -5.800  -0.5921   0.01793   0.00686  -0.0047  0.0500  0.0500  -2.5286   0.0000   0.0000   0.0000   0.2346
  -5.700  -0.5833   0.01784   0.00673  -0.0044  0.0500  0.0500  -2.4713   0.0000   0.0000   0.0000   0.2351
  -5.600  -0.5743   0.01776   0.00660  -0.0041  0.0500  0.0500  -2.4138   0.0000   0.0000   0.0000   0.2355
  -5.500  -0.5653   0.01767   0.00648  -0.0038  0.0500  0.0500  -2.3560   0.0000   0.0000   0.0000   0.2360
  -5.400  -0.5561   0.01759   0.00636  -0.0036  0.0500  0.0500  -2.2980   0.0000   0.0000   0.0000   0.2364
  -5.300  -0.5469   0.01751   0.00624  -0.0033  0.0500  0.0500  -2.2398   0.0000   0.0000   0.0000   0.2368
  -5.200  -0.5375   0.01743   0.00613  -0.0031  0.0500  0.0500  -2.1811   0.0000   0.0000   0.0000   0.2372
  -5.100  -0.5281   0.01736   0.00602  -0.0029  0.0500  0.0500  -2.1216   0.0000   0.0000   0.0000   0.2376
  -5.000  -0.5186   0.01729   0.00590  -0.0027  0.0500  0.0500  -2.0581   0.0000   0.0000   0.0000   0.2379
  -4.900  -0.5090   0.01721   0.00565  -0.0025  0.0500  0.0500  -1.9829   0.0000   0.0000   0.0000   0.2383
  -4.800  -0.4994   0.01715   0.00555  -0.0023  0.0500  0.0500  -1.9266   0.0000   0.0000   0.0000   0.2386
  -4.700  -0.4897   0.01708   0.00545  -0.0021  0.0500  0.0500  -1.8705   0.0000   0.0000   0.0000   0.2390
  -4.600  -0.4800   0.01701   0.00536  -0.0020  0.0500  0.0500  -1.8147   0.0000   0.0000   0.0000   0.2393
  -4.500  -0.4702   0.01695   0.00526  -0.0018  0.0500  0.0500  -1.7592   0.0000   0.0000   0.0000   0.2396
  -4.400  -0.4603   0.01689   0.00518  -0.0017  0.0500  0.0500  -1.7041   0.0000   0.0000   0.0000   0.2398
  -4.300  -0.4505   0.01683   0.00509  -0.0016  0.0500  0.0500  -1.6493   0.0000   0.0000   0.0000   0.2401
  -4.200  -0.4406   0.01677   0.00500  -0.0014  0.0500  0.0500  -1.5950   0.0000   0.0000   0.0000   0.2404
  -4.100  -0.4306   0.01671   0.00492  -0.0013  0.0500  0.0500  -1.5410   0.0000   0.0000   0.0000   0.2407
  -4.000  -0.4206   0.01666   0.00484  -0.0012  0.0500  0.0500  -1.4873   0.0000   0.0000   0.0000   0.2409
  -3.900  -0.4105   0.01660   0.00476  -0.0011  0.0500  0.0500  -1.4341   0.0000   0.0000   0.0000   0.2412
  -3.800  -0.4004   0.01655   0.00469  -0.0010  0.0500  0.0500  -1.3813   0.0000   0.0000   0.0000   0.2414
  -3.700  -0.3903   0.01650   0.00461  -0.0009  0.0500  0.0500  -1.3289   0.0000   0.0000   0.0000   0.2416
  -3.600  -0.3801   0.01645   0.00454  -0.0008  0.0500  0.0500  -1.2770   0.0000   0.0000   0.0000   0.2418
  -3.500  -0.3699   0.01640   0.00448  -0.0007  0.0500  0.0500  -1.2255   0.0000   0.0000   0.0000   0.2420
  -3.400  -0.3596   0.01636   0.00441  -0.0007  0.0500  0.0500  -1.1744   0.0000   0.0000   0.0000   0.2422
  -3.300  -0.3494   0.01632   0.00435  -0.0006  0.0500  0.0500  -1.1238   0.0000   0.0000   0.0000   0.2424
  -3.200  -0.3390   0.01627   0.00429  -0.0005  0.0500  0.0500  -1.0737   0.0000   0.0000   0.0000   0.2426
  -3.100  -0.3287   0.01623   0.00423  -0.0005  0.0500  0.0500  -1.0241   0.0000   0.0000   0.0000   0.2428
  -3.000  -0.3183   0.01619   0.00417  -0.0004  0.0500  0.0500  -0.9750   0.0000   0.0000   0.0000   0.2429
  -2.900  -0.3079   0.01616   0.00412  -0.0004  0.0500  0.0500  -0.9264   0.0000   0.0000   0.0000   0.2431
  -2.800  -0.2975   0.01612   0.00407  -0.0003  0.0500  0.0500  -0.8783   0.0000   0.0000   0.0000   0.2432
  -2.700  -0.2871   0.01608   0.00402  -0.0003  0.0500  0.0500  -0.8308   0.0000   0.0000   0.0000   0.2434
  -2.600  -0.2766   0.01605   0.00397  -0.0002  0.0500  0.0500  -0.7839   0.0000   0.0000   0.0000   0.2436
  -2.500  -0.2662   0.01602   0.00392  -0.0002  0.0500  0.0500  -0.7402   0.0000   0.0000   0.0000   0.2437
  -2.400  -0.2557   0.01598   0.00388  -0.0002  0.0500  0.0500  -0.7057   0.0000   0.0000   0.0000   0.2438
  -2.300  -0.2452   0.01595   0.00383  -0.0001  0.0500  0.0500  -0.6719   0.0000   0.0000   0.0000   0.2440
  -2.200  -0.2346   0.01592   0.00379  -0.0001  0.0500  0.0500  -0.6461   0.0000   0.0000   0.0000   0.2441
  -2.100  -0.2241   0.01590   0.00375  -0.0001  0.0500  0.0500  -0.6204   0.0000   0.0000   0.0000   0.2442
  -2.000  -0.2135   0.01587   0.00372  -0.0001  0.0500  0.0500  -0.5949   0.0000   0.0000   0.0000   0.2443
  -1.900  -0.2029   0.01584   0.00368  -0.0000  0.0500  0.0500  -0.5839   0.0000   0.0000   0.0000   0.2444
  -1.800  -0.1923   0.01582   0.00365  -0.0000  0.0500  0.0500  -0.5773   0.0000   0.0000   0.0000   0.2445
  -1.700  -0.1817   0.01580   0.00362  -0.0000  0.0500  0.0500  -0.5706   0.0000   0.0000   0.0000   0.2446
  -1.600  -0.1711   0.01578   0.00359  -0.0000  0.0500  0.0500  -0.5656   0.0000   0.0000   0.0000   0.2447
  -1.500  -0.1604   0.01576   0.00357  -0.0000  0.0500  0.0500  -0.5605   0.0000   0.0000   0.0000   0.2447
  -1.400  -0.1498   0.01574   0.00354   0.0000  0.0500  0.0500  -0.5554   0.0000   0.0000   0.0000   0.2448
  -1.300  -0.1391   0.01573   0.00352   0.0000  0.0500  0.0500  -0.5503   0.0000   0.0000   0.0000   0.2449
  -1.200  -0.1284   0.01571   0.00350   0.0000  0.0500  0.0500  -0.5452   0.0000   0.0000   0.0000   0.2449
  -1.100  -0.1178   0.01570   0.00348   0.0000  0.0500  0.0500  -0.5401   0.0000   0.0000   0.0000   0.2450
  -1.000  -0.1071   0.01568   0.00347   0.0000  0.0500  0.0500  -0.5350   0.0000   0.0000   0.0000   0.2451
  -0.900  -0.0964   0.01567   0.00345   0.0000  0.0500  0.0500  -0.5300   0.0000   0.0000   0.0000   0.2451
  -0.800  -0.0857   0.01566   0.00344   0.0000  0.0500  0.0500  -0.5249   0.0000   0.0000   0.0000   0.2452
  -0.700  -0.0750   0.01565   0.00343   0.0000  0.0500  0.0500  -0.5198   0.0000   0.0000   0.0000   0.2452
  -0.600  -0.0643   0.01564   0.00342   0.0000  0.0500  0.0500  -0.5147   0.0000   0.0000   0.0000   0.2453
  -0.500  -0.0536   0.01564   0.00341   0.0000  0.0500  0.0500  -0.5096   0.0000   0.0000   0.0000   0.2454
  -0.400  -0.0429   0.01563   0.00341   0.0000  0.0500  0.0500  -0.5045   0.0000   0.0000   0.0000   0.2454
  -0.300  -0.0322   0.01562   0.00340   0.0000  0.0500  0.0500  -0.4993   0.0000   0.0000   0.0000   0.2454
  -0.200  -0.0215   0.01562   0.00340   0.0000  0.0500  0.0500  -0.4942   0.0000   0.0000   0.0000   0.2454
  -0.100  -0.0107   0.01562   0.00340   0.0000  0.0500  0.0500  -0.4891   0.0000   0.0000   0.0000   0.2454
   0.000  -0.0000   0.01562   0.00341   0.0000  0.0500  0.0500  -0.4839   0.0000   0.0000   0.0000   0.5179
   0.100   0.0107   0.01562   0.00340  -0.0000  0.0500  0.0500  -0.4891   0.0000   0.0000   0.0000   0.2454
   0.200   0.0215   0.01562   0.00340  -0.0000  0.0500  0.0500  -0.4942   0.0000   0.0000   0.0000   0.2454
   0.300   0.0322   0.01562   0.00340  -0.0000  0.0500  0.0500  -0.4993   0.0000   0.0000   0.0000   0.2454
   0.400   0.0429   0.01563   0.00341  -0.0000  0.0500  0.0500  -0.5045   0.0000   0.0000   0.0000   0.2454
   0.500   0.0536   0.01564   0.00341  -0.0000  0.0500  0.0500  -0.5096   0.0000   0.0000   0.0000   0.2454
   0.600   0.0643   0.01564   0.00342  -0.0000  0.0500  0.0500  -0.5147   0.0000   0.0000   0.0000   0.2453
   0.700   0.0750   0.01565   0.00343  -0.0000  0.0500  0.0500  -0.5198   0.0000   0.0000   0.0000   0.2452
   0.800   0.0857   0.01566   0.00344  -0.0000  0.0500  0.0500  -0.5249   0.0000   0.0000   0.0000   0.2452
   0.900   0.0964   0.01567   0.00345  -0.0000  0.0500  0.0500  -0.5300   0.0000   0.0000   0.0000   0.2451
   1.000   0.1071   0.01568   0.00347  -0.0000  0.0500  0.0500  -0.5350   0.0000   0.0000   0.0000   0.2451
   1.100   0.1178   0.01570   0.00348  -0.0000  0.0500  0.0500  -0.5401   0.0000   0.0000   0.0000   0.2450
   1.200   0.1284   0.01571   0.00350  -0.0000  0.0500  0.0500  -0.5452   0.0000   0.0000   0.0000   0.2449
   1.300   0.1391   0.01573   0.00352  -0.0000  0.0500  0.0500  -0.5503   0.0000   0.0000   0.0000   0.2449
   1.400   0.1498   0.01574   0.00354  -0.0000  0.0500  0.0500  -0.5554   0.0000   0.0000   0.0000   0.2448
   1.500   0.1604   0.01576   0.00357   0.0000  0.0500  0.0500  -0.5605   0.0000   0.0000   0.0000   0.2447
   1.600   0.1711   0.01578   0.00359   0.0000  0.0500  0.0500  -0.5656   0.0000   0.0000   0.0000   0.2447
   1.700   0.1817   0.01580   0.00362   0.0000  0.0500  0.0500  -0.5706   0.0000   0.0000   0.0000   0.2446
   1.800   0.1923   0.01582   0.00365   0.0000  0.0500  0.0500  -0.5773   0.0000   0.0000   0.0000   0.2445
   1.900   0.2029   0.01584   0.00368   0.0000  0.0500  0.0500  -0.5839   0.0000   0.0000   0.0000   0.2444
   2.000   0.2135   0.01587   0.00372   0.0001  0.0500  0.0500  -0.5949   0.0000   0.0000   0.0000   0.2443
   2.100   0.2241   0.01590   0.00375   0.0001  0.0500  0.0500  -0.6204   0.0000   0.0000   0.0000   0.2442
   2.200   0.2346   0.01592   0.00379   0.0001  0.0500  0.0500  -0.6461   0.0000   0.0000   0.0000   0.2441
   2.300   0.2452   0.01595   0.00383   0.0001  0.0500  0.0500  -0.6719   0.0000   0.0000   0.0000   0.2440
   2.400   0.2557   0.01598   0.00388   0.0002  0.0500  0.0500  -0.7057   0.0000   0.0000   0.0000   0.2438
   2.500   0.2662   0.01602   0.00392   0.0002  0.0500  0.0500  -0.7402   0.0000   0.0000   0.0000   0.2437
   2.600   0.2766   0.01605   0.00397   0.0002  0.0500  0.0500  -0.7839   0.0000   0.0000   0.0000   0.2436
   2.700   0.2871   0.01608   0.00402   0.0003  0.0500  0.0500  -0.8308   0.0000   0.0000   0.0000   0.2434
   2.800   0.2975   0.01612   0.00407   0.0003  0.0500  0.0500  -0.8783   0.0000   0.0000   0.0000   0.2432
   2.900   0.3079   0.01616   0.00412   0.0004  0.0500  0.0500  -0.9264   0.0000   0.0000   0.0000   0.2431
   3.000   0.3183   0.01619   0.00417   0.0004  0.0500  0.0500  -0.9750   0.0000   0.0000   0.0000   0.2429
   3.100   0.3287   0.01623   0.00423   0.0005  0.0500  0.0500  -1.0241   0.0000   0.0000   0.0000   0.2428
   3.200   0.3390   0.01627   0.00429   0.0005  0.0500  0.0500  -1.0737   0.0000   0.0000   0.0000   0.2426
   3.300   0.3494   0.01631   0.00435   0.0006  0.0500  0.0500  -1.1238   0.0000   0.0000   0.0000   0.2424
   3.400   0.3596   0.01636   0.00441   0.0007  0.0500  0.0500  -1.1744   0.0000   0.0000   0.0000   0.2422
   3.500   0.3699   0.01640   0.00447   0.0007  0.0500  0.0500  -1.2255   0.0000   0.0000   0.0000   0.2420
   3.600   0.3801   0.01645   0.00454   0.0008  0.0500  0.0500  -1.2770   0.0000   0.0000   0.0000   0.2418
   3.700   0.3903   0.01650   0.00461   0.0009  0.0500  0.0500  -1.3289   0.0000   0.0000   0.0000   0.2416
   3.800   0.4004   0.01655   0.00469   0.0010  0.0500  0.0500  -1.3813   0.0000   0.0000   0.0000   0.2414
   3.900   0.4105   0.01660   0.00476   0.0011  0.0500  0.0500  -1.4341   0.0000   0.0000   0.0000   0.2412
   4.000   0.4206   0.01666   0.00484   0.0012  0.0500  0.0500  -1.4873   0.0000   0.0000   0.0000   0.2409
   4.100   0.4306   0.01671   0.00492   0.0013  0.0500  0.0500  -1.5410   0.0000   0.0000   0.0000   0.2407
   4.200   0.4406   0.01677   0.00500   0.0014  0.0500  0.0500  -1.5950   0.0000   0.0000   0.0000   0.2404
   4.300   0.4505   0.01683   0.00509   0.0016  0.0500  0.0500  -1.6493   0.0000   0.0000   0.0000   0.2401
   4.400   0.4603   0.01689   0.00517   0.0017  0.0500  0.0500  -1.7041   0.0000   0.0000   0.0000   0.2398
   4.500   0.4702   0.01695   0.00526   0.0018  0.0500  0.0500  -1.7592   0.0000   0.0000   0.0000   0.2396
   4.600   0.4800   0.01701   0.00536   0.0020  0.0500  0.0500  -1.8147   0.0000   0.0000   0.0000   0.2393
   4.700   0.4897   0.01708   0.00545   0.0021  0.0500  0.0500  -1.8705   0.0000   0.0000   0.0000   0.2390
   4.800   0.4994   0.01714   0.00555   0.0023  0.0500  0.0500  -1.9266   0.0000   0.0000   0.0000   0.2386
   4.900   0.5090   0.01721   0.00565   0.0025  0.0500  0.0500  -1.9829   0.0000   0.0000   0.0000   0.2383
   5.000   0.5186   0.01729   0.00590   0.0027  0.0500  0.0500  -2.0581   0.0000   0.0000   0.0000   0.2379
   5.100   0.5281   0.01736   0.00601   0.0029  0.0500  0.0500  -2.1216   0.0000   0.0000   0.0000   0.2376
   5.200   0.5375   0.01743   0.00612   0.0031  0.0500  0.0500  -2.1811   0.0000   0.0000   0.0000   0.2372
   5.300   0.5469   0.01751   0.00624   0.0033  0.0500  0.0500  -2.2398   0.0000   0.0000   0.0000   0.2368
   5.400   0.5561   0.01759   0.00636   0.0036  0.0500  0.0500  -2.2980   0.0000   0.0000   0.0000   0.2364
   5.500   0.5653   0.01767   0.00648   0.0038  0.0500  0.0500  -2.3560   0.0000   0.0000   0.0000   0.2360
   5.600   0.5743   0.01775   0.00660   0.0041  0.0500  0.0500  -2.4138   0.0000   0.0000   0.0000   0.2355
   5.700   0.5833   0.01784   0.00673   0.0044  0.0500  0.0500  -2.4713   0.0000   0.0000   0.0000   0.2351
   5.800   0.5921   0.01793   0.00686   0.0047  0.0500  0.0500  -2.5286   0.0000   0.0000   0.0000   0.2346
   5.900   0.6008   0.01802   0.00701   0.0050  0.0500  0.0500  -2.5821   0.0000   0.0000   0.0000   0.2341
   6.000   0.6094   0.01811   0.00714   0.0054  0.0500  0.0500  -2.6367   0.0000   0.0000   0.0000   0.2335
   6.100   0.6179   0.01821   0.00729   0.0058  0.0500  0.0500  -2.6922   0.0000   0.0000   0.0000   0.2330
   6.200   0.6262   0.01831   0.00743   0.0061  0.0500  0.0500  -2.7474   0.0000   0.0000   0.0000   0.2324
   6.300   0.6344   0.01842   0.00759   0.0066  0.0500  0.0500  -2.8015   0.0000   0.0000   0.0000   0.2317
   6.400   0.6423   0.01854   0.00776   0.0071  0.0500  0.0500  -2.8540   0.0000   0.0000   0.0000   0.2310
   6.500   0.6497   0.01867   0.00794   0.0076  0.0498  0.0500  -2.9042   0.0000   0.0000   0.0000   0.2302
   6.600   0.6567   0.01881   0.00811   0.0082  0.0477  0.0500  -2.9579   0.0000   0.0000   0.0000   0.2294
   6.700   0.6633   0.01896   0.00829   0.0088  0.0457  0.0500  -3.0098   0.0000   0.0000   0.0000   0.2284
   6.800   0.6695   0.01912   0.00848   0.0095  0.0439  0.0500  -3.0596   0.0000   0.0000   0.0000   0.2274
   6.900   0.6752   0.01928   0.00867   0.0103  0.0423  0.0500  -3.1078   0.0000   0.0000   0.0000   0.2262
   7.000   0.6805   0.01946   0.00886   0.0112  0.0407  0.0500  -3.1543   0.0000   0.0000   0.0000   0.2250
   7.100   0.6853   0.01964   0.00907   0.0121  0.0393  0.0500  -3.1990   0.0000   0.0000   0.0000   0.2236
   7.200   0.6893   0.01982   0.00926   0.0132  0.0379  0.0500  -3.2412   0.0000   0.0000   0.0000   0.2221
   7.300   0.6918   0.01999   0.00945   0.0145  0.0366  0.0500  -3.2786   0.0000   0.0000   0.0000   0.2201
   7.400   0.6935   0.02016   0.00964   0.0160  0.0355  0.0500  -3.3132   0.0000   0.0000   0.0000   0.2179
   7.500   0.6950   0.02034   0.00984   0.0174  0.0344  0.0500  -3.3466   0.0000   0.0000   0.0000   0.2157
   7.600   0.6960   0.02056   0.01007   0.0189  0.0333  0.0500  -3.3778   0.0000   0.0000   0.0000   0.2135
   7.700   0.6971   0.02080   0.01034   0.0204  0.0321  0.0500  -3.4078   0.0000   0.0000   0.0000   0.2113
   7.800   0.6981   0.02108   0.01064   0.0219  0.0310  0.0500  -3.4357   0.0000   0.0000   0.0000   0.2091
   7.900   0.6987   0.02138   0.01099   0.0233  0.0299  0.0500  -3.4605   0.0000   0.0000   0.0000   0.2069
   8.000   0.6983   0.02173   0.01138   0.0249  0.0289  0.0500  -3.4801   0.0000   0.0000   0.0000   0.2045
   8.100   0.6974   0.02213   0.01182   0.0264  0.0279  0.0500  -3.4958   0.0000   0.0000   0.0000   0.2021
   8.200   0.6964   0.02256   0.01230   0.0280  0.0270  0.0500  -3.5080   0.0000   0.0000   0.0000   0.1996
   8.300   0.6948   0.02305   0.01285   0.0296  0.0261  0.0500  -3.5148   0.0000   0.0000   0.0000   0.1971
   8.400   0.6923   0.02361   0.01347   0.0312  0.0253  0.0500  -3.5154   0.0000   0.0000   0.0000   0.1944
   8.500   0.6936   0.02400   0.01394   0.0324  0.0248  0.0500  -3.5473   0.0000   0.0000   0.0000   0.1927
   8.600   0.6972   0.02429   0.01426   0.0332  0.0246  0.0500  -3.5883   0.0000   0.0000   0.0000   0.1916
   8.700   0.7007   0.02459   0.01460   0.0341  0.0244  0.0500  -3.6277   0.0000   0.0000   0.0000   0.1905
   8.800   0.7042   0.02490   0.01495   0.0349  0.0241  0.0500  -3.6661   0.0000   0.0000   0.0000   0.1895
   8.900   0.7077   0.02523   0.01531   0.0357  0.0239  0.0500  -3.7036   0.0000   0.0000   0.0000   0.1884
   9.000   0.7111   0.02557   0.01568   0.0365  0.0237  0.0500  -3.7400   0.0000   0.0000   0.0000   0.1874
   9.100   0.7142   0.02592   0.01607   0.0373  0.0235  0.0500  -3.7750   0.0000   0.0000   0.0000   0.1863
   9.200   0.7174   0.02628   0.01647   0.0381  0.0232  0.0500  -3.8095   0.0000   0.0000   0.0000   0.1853
   9.300   0.7209   0.02665   0.01687   0.0389  0.0230  0.0500  -3.8441   0.0000   0.0000   0.0000   0.1844
   9.400   0.7245   0.02703   0.01728   0.0396  0.0228  0.0500  -3.8788   0.0000   0.0000   0.0000   0.1835
   9.500   0.7283   0.02740   0.01770   0.0403  0.0226  0.0500  -3.9135   0.0000   0.0000   0.0000   0.1827
   9.600   0.7324   0.02779   0.01812   0.0410  0.0224  0.0500  -3.9483   0.0000   0.0000   0.0000   0.1819
   9.700   0.7365   0.02817   0.01854   0.0417  0.0222  0.0500  -3.9831   0.0000   0.0000   0.0000   0.1812
   9.800   0.7408   0.02857   0.01898   0.0423  0.0220  0.0500  -4.0177   0.0000   0.0000   0.0000   0.1805
   9.900   0.7451   0.02897   0.01942   0.0429  0.0218  0.0500  -4.0524   0.0000   0.0000   0.0000   0.1799
  10.000   0.7497   0.02939   0.01988   0.0435  0.0216  0.0500  -4.0872   0.0000   0.0000   0.0000   0.1793
  10.100   0.7544   0.02981   0.02034   0.0441  0.0214  0.0500  -4.1220   0.0000   0.0000   0.0000   0.1788
  10.200   0.7591   0.03024   0.02082   0.0447  0.0212  0.0500  -4.1568   0.0000   0.0000   0.0000   0.1783
  10.300   0.7640   0.03069   0.02131   0.0452  0.0211  0.0500  -4.1913   0.0000   0.0000   0.0000   0.1778
  10.400   0.7687   0.03115   0.02182   0.0458  0.0209  0.0500  -4.2253   0.0000   0.0000   0.0000   0.1774
  10.500   0.7735   0.03162   0.02234   0.0463  0.0208  0.0500  -4.2590   0.0000   0.0000   0.0000   0.1769
  10.600   0.7782   0.03211   0.02288   0.0468  0.0207  0.0500  -4.2922   0.0000   0.0000   0.0000   0.1765
  10.700   0.7829   0.03261   0.02344   0.0473  0.0206  0.0500  -4.3250   0.0000   0.0000   0.0000   0.1761
  10.800   0.7875   0.03313   0.02401   0.0478  0.0204  0.0500  -4.3571   0.0000   0.0000   0.0000   0.1757
  10.900   0.7920   0.03366   0.02460   0.0483  0.0203  0.0500  -4.3886   0.0000   0.0000   0.0000   0.1753
  11.000   0.7963   0.03422   0.02521   0.0488  0.0202  0.0500  -4.4192   0.0000   0.0000   0.0000   0.1748
  11.100   0.8005   0.03479   0.02584   0.0493  0.0201  0.0500  -4.4489   0.0000   0.0000   0.0000   0.1744
  11.200   0.8044   0.03538   0.02649   0.0498  0.0201  0.0500  -4.4775   0.0000   0.0000   0.0000   0.1740
  11.300   0.8081   0.03599   0.02717   0.0503  0.0200  0.0500  -4.5050   0.0000   0.0000   0.0000   0.1735
  11.400   0.8116   0.03663   0.02786   0.0508  0.0199  0.0500  -4.5312   0.0000   0.0000   0.0000   0.1730
  11.500   0.8147   0.03728   0.02858   0.0513  0.0199  0.0500  -4.5562   0.0000   0.0000   0.0000   0.1725
  11.600   0.8174   0.03796   0.02932   0.0519  0.0198  0.0500  -4.5794   0.0000   0.0000   0.0000   0.1719
  11.700   0.8198   0.03865   0.03008   0.0524  0.0197  0.0500  -4.6021   0.0000   0.0000   0.0000   0.1714
  11.800   0.8218   0.03934   0.03083   0.0529  0.0197  0.0500  -4.6254   0.0000   0.0000   0.0000   0.1707
  11.900   0.8236   0.04002   0.03158   0.0534  0.0196  0.0500  -4.6491   0.0000   0.0000   0.0000   0.1701
  12.000   0.8250   0.04072   0.03233   0.0539  0.0194  0.0500  -4.6730   0.0000   0.0000   0.0000   0.1695
  12.100   0.8258   0.04142   0.03309   0.0544  0.0193  0.0500  -4.6957   0.0000   0.0000   0.0000   0.1688
  12.200   0.8262   0.04213   0.03386   0.0549  0.0192  0.0500  -4.7178   0.0000   0.0000   0.0000   0.1680
  12.300   0.8264   0.04285   0.03463   0.0553  0.0191  0.0500  -4.7402   0.0000   0.0000   0.0000   0.1673
  12.400   0.8267   0.04357   0.03541   0.0558  0.0190  0.0500  -4.7632   0.0000   0.0000   0.0000   0.1666
  12.500   0.8269   0.04430   0.03619   0.0562  0.0188  0.0500  -4.7866   0.0000   0.0000   0.0000   0.1659
  12.600   0.8270   0.04504   0.03698   0.0566  0.0187  0.0500  -4.8103   0.0000   0.0000   0.0000   0.1653
  12.700   0.8270   0.04578   0.03778   0.0570  0.0185  0.0500  -4.8341   0.0000   0.0000   0.0000   0.1647
  12.800   0.8266   0.04656   0.03861   0.0573  0.0184  0.0500  -4.8567   0.0000   0.0000   0.0000   0.1640
  12.900   0.8255   0.04737   0.03948   0.0577  0.0183  0.0500  -4.8766   0.0000   0.0000   0.0000   0.1633
  13.000   0.8244   0.04821   0.04035   0.0580  0.0181  0.0500  -4.8965   0.0000   0.0000   0.0000   0.1627
  13.100   0.8235   0.04904   0.04124   0.0582  0.0180  0.0500  -4.9173   0.0000   0.0000   0.0000   0.1621
  13.200   0.8226   0.04988   0.04213   0.0584  0.0178  0.0500  -4.9388   0.0000   0.0000   0.0000   0.1615
  13.300   0.8217   0.05074   0.04303   0.0586  0.0177  0.0500  -4.9604   0.0000   0.0000   0.0000   0.1610
  13.400   0.8208   0.05161   0.04395   0.0588  0.0176  0.0500  -4.9818   0.0000   0.0000   0.0000   0.1606
  13.500   0.8190   0.05255   0.04494   0.0589  0.0174  0.0500  -4.9991   0.0000   0.0000   0.0000   0.1600
  13.600   0.8168   0.05354   0.04597   0.0590  0.0173  0.0500  -5.0139   0.0000   0.0000   0.0000   0.1595
  13.700   0.8148   0.05453   0.04701   0.0591  0.0172  0.0500  -5.0301   0.0000   0.0000   0.0000   0.1591
  13.800   0.8132   0.05551   0.04805   0.0591  0.0171  0.0500  -5.0473   0.0000   0.0000   0.0000   0.1587


