xflr5 v6.61

 Calculated polar for: NACA 642-015 AIRFOIL

 1 1 Reynolds number fixed          Mach number fixed         

 xtrf =   0.150 (top)        0.150 (bottom)
 Mach =   0.061     Re =     0.225 e 6     Ncrit =   9.000

  alpha     CL        CD       CDp       Cm    Top Xtr Bot Xtr   Cpmin    Chinge    XCp    
 ------- -------- --------- --------- -------- ------- ------- -------- --------- ---------
 -10.000  -0.8144   0.03483   0.02630  -0.0386  0.1500  0.0360  -3.6479   0.0000   0.0000   0.0000   0.1908
  -9.900  -0.8094   0.03397   0.02535  -0.0380  0.1500  0.0360  -3.6357   0.0000   0.0000   0.0000   0.1913
  -9.800  -0.8034   0.03314   0.02442  -0.0376  0.1500  0.0359  -3.6206   0.0000   0.0000   0.0000   0.1916
  -9.700  -0.7963   0.03232   0.02352  -0.0372  0.1500  0.0359  -3.6027   0.0000   0.0000   0.0000   0.1918
  -9.600  -0.7884   0.03154   0.02265  -0.0369  0.1500  0.0359  -3.5820   0.0000   0.0000   0.0000   0.1918
  -9.500  -0.7798   0.03080   0.02182  -0.0367  0.1500  0.0359  -3.5589   0.0000   0.0000   0.0000   0.1916
  -9.400  -0.7707   0.03009   0.02103  -0.0365  0.1500  0.0360  -3.5338   0.0000   0.0000   0.0000   0.1913
  -9.300  -0.7613   0.02941   0.02028  -0.0363  0.1500  0.0362  -3.5072   0.0000   0.0000   0.0000   0.1910
  -9.200  -0.7518   0.02878   0.01958  -0.0362  0.1500  0.0364  -3.4796   0.0000   0.0000   0.0000   0.1907
  -9.100  -0.7425   0.02819   0.01892  -0.0360  0.1500  0.0366  -3.4515   0.0000   0.0000   0.0000   0.1905
  -9.000  -0.7335   0.02763   0.01829  -0.0357  0.1500  0.0369  -3.4235   0.0000   0.0000   0.0000   0.1903
  -8.900  -0.7248   0.02710   0.01771  -0.0354  0.1500  0.0373  -3.3957   0.0000   0.0000   0.0000   0.1902
  -8.800  -0.7166   0.02659   0.01715  -0.0351  0.1500  0.0378  -3.3687   0.0000   0.0000   0.0000   0.1902
  -8.700  -0.7089   0.02610   0.01662  -0.0346  0.1500  0.0383  -3.3429   0.0000   0.0000   0.0000   0.1904
  -8.600  -0.7020   0.02563   0.01610  -0.0341  0.1500  0.0389  -3.3192   0.0000   0.0000   0.0000   0.1908
  -8.500  -0.6960   0.02514   0.01556  -0.0334  0.1500  0.0399  -3.3007   0.0000   0.0000   0.0000   0.1914
  -8.400  -0.6907   0.02468   0.01500  -0.0327  0.1500  0.0410  -3.2819   0.0000   0.0000   0.0000   0.1923
  -8.300  -0.6858   0.02427   0.01455  -0.0319  0.1500  0.0419  -3.2605   0.0000   0.0000   0.0000   0.1932
  -8.200  -0.6815   0.02387   0.01412  -0.0310  0.1500  0.0428  -3.2399   0.0000   0.0000   0.0000   0.1943
  -8.100  -0.6777   0.02348   0.01369  -0.0301  0.1500  0.0438  -3.2196   0.0000   0.0000   0.0000   0.1955
  -8.000  -0.6742   0.02311   0.01328  -0.0291  0.1500  0.0449  -3.1988   0.0000   0.0000   0.0000   0.1969
  -7.900  -0.6709   0.02277   0.01290  -0.0280  0.1500  0.0459  -3.1768   0.0000   0.0000   0.0000   0.1984
  -7.800  -0.6677   0.02245   0.01255  -0.0270  0.1500  0.0469  -3.1528   0.0000   0.0000   0.0000   0.1999
  -7.700  -0.6645   0.02216   0.01222  -0.0259  0.1500  0.0479  -3.1261   0.0000   0.0000   0.0000   0.2014
  -7.600  -0.6610   0.02191   0.01193  -0.0249  0.1500  0.0486  -3.0960   0.0000   0.0000   0.0000   0.2029
  -7.500  -0.6571   0.02168   0.01167  -0.0239  0.1500  0.0493  -3.0623   0.0000   0.0000   0.0000   0.2043
  -7.400  -0.6528   0.02148   0.01144  -0.0229  0.1500  0.0498  -3.0258   0.0000   0.0000   0.0000   0.2056
  -7.300  -0.6541   0.02104   0.01097  -0.0211  0.1500  0.0511  -3.0177   0.0000   0.0000   0.0000   0.2086
  -7.200  -0.6593   0.02056   0.01044  -0.0186  0.1500  0.0530  -3.0231   0.0000   0.0000   0.0000   0.2128
  -7.100  -0.6640   0.02019   0.01003  -0.0161  0.1500  0.0549  -3.0219   0.0000   0.0000   0.0000   0.2169
  -7.000  -0.6671   0.01987   0.00970  -0.0139  0.1500  0.0571  -3.0139   0.0000   0.0000   0.0000   0.2205
  -6.900  -0.6669   0.01955   0.00937  -0.0122  0.1500  0.0598  -2.9943   0.0000   0.0000   0.0000   0.2232
  -6.800  -0.6649   0.01924   0.00908  -0.0109  0.1500  0.0628  -2.9667   0.0000   0.0000   0.0000   0.2253
  -6.700  -0.6621   0.01895   0.00879  -0.0096  0.1500  0.0661  -2.9359   0.0000   0.0000   0.0000   0.2272
  -6.600  -0.6581   0.01868   0.00851  -0.0086  0.1500  0.0698  -2.9021   0.0000   0.0000   0.0000   0.2288
  -6.500  -0.6527   0.01846   0.00824  -0.0077  0.1500  0.0738  -2.8636   0.0000   0.0000   0.0000   0.2301
  -6.400  -0.6515   0.01801   0.00787  -0.0062  0.1500  0.0831  -2.8426   0.0000   0.0000   0.0000   0.2325
  -6.300  -0.6499   0.01756   0.00755  -0.0050  0.1500  0.0942  -2.8130   0.0000   0.0000   0.0000   0.2345
  -6.200  -0.6477   0.01709   0.00718  -0.0037  0.1500  0.1207  -2.7870   0.0000   0.0000   0.0000   0.2366
  -6.100  -0.6458   0.01658   0.00685  -0.0025  0.1500  0.1485  -2.7563   0.0000   0.0000   0.0000   0.2386
  -6.000  -0.6363   0.01650   0.00666  -0.0022  0.1500  0.1500  -2.7041   0.0000   0.0000   0.0000   0.2391
  -5.900  -0.6265   0.01643   0.00650  -0.0019  0.1500  0.1500  -2.6476   0.0000   0.0000   0.0000   0.2395
  -5.800  -0.6167   0.01637   0.00636  -0.0017  0.1500  0.1500  -2.5904   0.0000   0.0000   0.0000   0.2398
  -5.700  -0.6068   0.01631   0.00621  -0.0016  0.1500  0.1500  -2.5356   0.0000   0.0000   0.0000   0.2401
  -5.600  -0.5968   0.01625   0.00609  -0.0014  0.1500  0.1500  -2.4760   0.0000   0.0000   0.0000   0.2405
  -5.500  -0.5868   0.01619   0.00596  -0.0012  0.1500  0.1500  -2.4161   0.0000   0.0000   0.0000   0.2408
  -5.400  -0.5768   0.01613   0.00585  -0.0011  0.1500  0.1500  -2.3561   0.0000   0.0000   0.0000   0.2410
  -5.300  -0.5668   0.01607   0.00573  -0.0010  0.1500  0.1500  -2.2960   0.0000   0.0000   0.0000   0.2413
  -5.200  -0.5567   0.01602   0.00563  -0.0008  0.1500  0.1500  -2.2357   0.0000   0.0000   0.0000   0.2416
  -5.100  -0.5466   0.01597   0.00552  -0.0007  0.1500  0.1500  -2.1750   0.0000   0.0000   0.0000   0.2419
  -5.000  -0.5364   0.01592   0.00541  -0.0006  0.1500  0.1500  -2.1134   0.0000   0.0000   0.0000   0.2421
  -4.900  -0.5261   0.01587   0.00516  -0.0005  0.1500  0.1500  -2.0301   0.0000   0.0000   0.0000   0.2424
  -4.800  -0.5159   0.01582   0.00506  -0.0004  0.1500  0.1500  -1.9719   0.0000   0.0000   0.0000   0.2427
  -4.700  -0.5056   0.01577   0.00497  -0.0003  0.1500  0.1500  -1.9141   0.0000   0.0000   0.0000   0.2429
  -4.600  -0.4953   0.01572   0.00488  -0.0002  0.1500  0.1500  -1.8565   0.0000   0.0000   0.0000   0.2431
  -4.500  -0.4849   0.01568   0.00479  -0.0001  0.1500  0.1500  -1.7993   0.0000   0.0000   0.0000   0.2434
  -4.400  -0.4746   0.01564   0.00471  -0.0000  0.1500  0.1500  -1.7425   0.0000   0.0000   0.0000   0.2436
  -4.300  -0.4641   0.01559   0.00463   0.0000  0.1500  0.1500  -1.6861   0.0000   0.0000   0.0000   0.2438
  -4.200  -0.4537   0.01555   0.00456   0.0001  0.1500  0.1500  -1.6300   0.0000   0.0000   0.0000   0.2440
  -4.100  -0.4432   0.01552   0.00448   0.0002  0.1500  0.1500  -1.5744   0.0000   0.0000   0.0000   0.2441
  -4.000  -0.4327   0.01548   0.00441   0.0002  0.1500  0.1500  -1.5193   0.0000   0.0000   0.0000   0.2443
  -3.900  -0.4221   0.01544   0.00434   0.0002  0.1500  0.1500  -1.4646   0.0000   0.0000   0.0000   0.2445
  -3.800  -0.4116   0.01541   0.00427   0.0003  0.1500  0.1500  -1.4104   0.0000   0.0000   0.0000   0.2447
  -3.700  -0.4010   0.01537   0.00421   0.0003  0.1500  0.1500  -1.3566   0.0000   0.0000   0.0000   0.2448
  -3.600  -0.3904   0.01534   0.00414   0.0004  0.1500  0.1500  -1.3034   0.0000   0.0000   0.0000   0.2450
  -3.500  -0.3798   0.01530   0.00408   0.0004  0.1500  0.1500  -1.2506   0.0000   0.0000   0.0000   0.2451
  -3.400  -0.3691   0.01527   0.00402   0.0004  0.1500  0.1500  -1.1984   0.0000   0.0000   0.0000   0.2453
  -3.300  -0.3585   0.01524   0.00396   0.0004  0.1500  0.1500  -1.1467   0.0000   0.0000   0.0000   0.2454
  -3.200  -0.3478   0.01521   0.00391   0.0005  0.1500  0.1500  -1.0955   0.0000   0.0000   0.0000   0.2456
  -3.100  -0.3371   0.01518   0.00385   0.0005  0.1500  0.1500  -1.0449   0.0000   0.0000   0.0000   0.2457
  -3.000  -0.3264   0.01516   0.00380   0.0005  0.1500  0.1500  -0.9948   0.0000   0.0000   0.0000   0.2458
  -2.900  -0.3157   0.01513   0.00375   0.0005  0.1500  0.1500  -0.9452   0.0000   0.0000   0.0000   0.2460
  -2.800  -0.3049   0.01510   0.00370   0.0005  0.1500  0.1500  -0.8962   0.0000   0.0000   0.0000   0.2461
  -2.700  -0.2942   0.01508   0.00366   0.0005  0.1500  0.1500  -0.8477   0.0000   0.0000   0.0000   0.2462
  -2.600  -0.2834   0.01506   0.00361   0.0005  0.1500  0.1500  -0.7998   0.0000   0.0000   0.0000   0.2463
  -2.500  -0.2726   0.01503   0.00357   0.0005  0.1500  0.1500  -0.7524   0.0000   0.0000   0.0000   0.2464
  -2.400  -0.2618   0.01501   0.00353   0.0005  0.1500  0.1500  -0.7163   0.0000   0.0000   0.0000   0.2465
  -2.300  -0.2510   0.01499   0.00350   0.0005  0.1500  0.1500  -0.6814   0.0000   0.0000   0.0000   0.2466
  -2.200  -0.2401   0.01497   0.00346   0.0005  0.1500  0.1500  -0.6529   0.0000   0.0000   0.0000   0.2467
  -2.100  -0.2293   0.01496   0.00343   0.0005  0.1500  0.1500  -0.6269   0.0000   0.0000   0.0000   0.2468
  -2.000  -0.2184   0.01494   0.00340   0.0005  0.1500  0.1500  -0.6011   0.0000   0.0000   0.0000   0.2469
  -1.900  -0.2076   0.01492   0.00337   0.0005  0.1500  0.1500  -0.5857   0.0000   0.0000   0.0000   0.2469
  -1.800  -0.1967   0.01491   0.00334   0.0004  0.1500  0.1500  -0.5798   0.0000   0.0000   0.0000   0.2470
  -1.700  -0.1858   0.01489   0.00331   0.0004  0.1500  0.1500  -0.5746   0.0000   0.0000   0.0000   0.2471
  -1.600  -0.1749   0.01488   0.00329   0.0004  0.1500  0.1500  -0.5694   0.0000   0.0000   0.0000   0.2471
  -1.500  -0.1640   0.01487   0.00327   0.0004  0.1500  0.1500  -0.5642   0.0000   0.0000   0.0000   0.2472
  -1.400  -0.1531   0.01485   0.00325   0.0004  0.1500  0.1500  -0.5590   0.0000   0.0000   0.0000   0.2473
  -1.300  -0.1422   0.01484   0.00323   0.0004  0.1500  0.1500  -0.5537   0.0000   0.0000   0.0000   0.2473
  -1.200  -0.1313   0.01483   0.00321   0.0003  0.1500  0.1500  -0.5485   0.0000   0.0000   0.0000   0.2474
  -1.100  -0.1204   0.01482   0.00319   0.0003  0.1500  0.1500  -0.5432   0.0000   0.0000   0.0000   0.2474
  -1.000  -0.1095   0.01481   0.00318   0.0003  0.1500  0.1500  -0.5380   0.0000   0.0000   0.0000   0.2475
  -0.900  -0.0985   0.01480   0.00317   0.0003  0.1500  0.1500  -0.5327   0.0000   0.0000   0.0000   0.2475
  -0.800  -0.0876   0.01480   0.00315   0.0002  0.1500  0.1500  -0.5274   0.0000   0.0000   0.0000   0.2476
  -0.700  -0.0766   0.01479   0.00314   0.0002  0.1500  0.1500  -0.5221   0.0000   0.0000   0.0000   0.2476
  -0.600  -0.0657   0.01478   0.00314   0.0002  0.1500  0.1500  -0.5168   0.0000   0.0000   0.0000   0.2476
  -0.500  -0.0548   0.01478   0.00313   0.0001  0.1500  0.1500  -0.5115   0.0000   0.0000   0.0000   0.2476
  -0.400  -0.0438   0.01478   0.00313   0.0001  0.1500  0.1500  -0.5063   0.0000   0.0000   0.0000   0.2477
  -0.300  -0.0329   0.01477   0.00312   0.0001  0.1500  0.1500  -0.5010   0.0000   0.0000   0.0000   0.2477
  -0.200  -0.0219   0.01477   0.00312   0.0001  0.1500  0.1500  -0.4957   0.0000   0.0000   0.0000   0.2477
  -0.100  -0.0110   0.01477   0.00312   0.0000  0.1500  0.1500  -0.4904   0.0000   0.0000   0.0000   0.2477
   0.000   0.0000   0.01477   0.00313   0.0000  0.1500  0.1500  -0.4851   0.0000   0.0000   0.0000  -1.7103
   0.100   0.0110   0.01477   0.00312  -0.0000  0.1500  0.1500  -0.4904   0.0000   0.0000   0.0000   0.2477
   0.200   0.0219   0.01477   0.00312  -0.0001  0.1500  0.1500  -0.4957   0.0000   0.0000   0.0000   0.2477
   0.300   0.0329   0.01477   0.00312  -0.0001  0.1500  0.1500  -0.5010   0.0000   0.0000   0.0000   0.2477
   0.400   0.0438   0.01478   0.00313  -0.0001  0.1500  0.1500  -0.5063   0.0000   0.0000   0.0000   0.2477
   0.500   0.0548   0.01478   0.00313  -0.0001  0.1500  0.1500  -0.5115   0.0000   0.0000   0.0000   0.2476
   0.600   0.0657   0.01478   0.00314  -0.0002  0.1500  0.1500  -0.5168   0.0000   0.0000   0.0000   0.2476
   0.700   0.0766   0.01479   0.00314  -0.0002  0.1500  0.1500  -0.5221   0.0000   0.0000   0.0000   0.2476
   0.800   0.0876   0.01480   0.00315  -0.0002  0.1500  0.1500  -0.5274   0.0000   0.0000   0.0000   0.2476
   0.900   0.0985   0.01480   0.00317  -0.0003  0.1500  0.1500  -0.5327   0.0000   0.0000   0.0000   0.2475
   1.000   0.1095   0.01481   0.00318  -0.0003  0.1500  0.1500  -0.5380   0.0000   0.0000   0.0000   0.2475
   1.100   0.1204   0.01482   0.00319  -0.0003  0.1500  0.1500  -0.5432   0.0000   0.0000   0.0000   0.2474
   1.200   0.1313   0.01483   0.00321  -0.0003  0.1500  0.1500  -0.5485   0.0000   0.0000   0.0000   0.2474
   1.300   0.1422   0.01484   0.00323  -0.0004  0.1500  0.1500  -0.5537   0.0000   0.0000   0.0000   0.2473
   1.400   0.1531   0.01485   0.00325  -0.0004  0.1500  0.1500  -0.5590   0.0000   0.0000   0.0000   0.2473
   1.500   0.1640   0.01487   0.00327  -0.0004  0.1500  0.1500  -0.5642   0.0000   0.0000   0.0000   0.2472
   1.600   0.1749   0.01488   0.00329  -0.0004  0.1500  0.1500  -0.5694   0.0000   0.0000   0.0000   0.2471
   1.700   0.1858   0.01489   0.00331  -0.0004  0.1500  0.1500  -0.5746   0.0000   0.0000   0.0000   0.2471
   1.800   0.1967   0.01491   0.00334  -0.0004  0.1500  0.1500  -0.5798   0.0000   0.0000   0.0000   0.2470
   1.900   0.2076   0.01492   0.00337  -0.0005  0.1500  0.1500  -0.5857   0.0000   0.0000   0.0000   0.2469
   2.000   0.2184   0.01494   0.00340  -0.0005  0.1500  0.1500  -0.6011   0.0000   0.0000   0.0000   0.2469
   2.100   0.2293   0.01496   0.00343  -0.0005  0.1500  0.1500  -0.6269   0.0000   0.0000   0.0000   0.2468
   2.200   0.2401   0.01497   0.00346  -0.0005  0.1500  0.1500  -0.6529   0.0000   0.0000   0.0000   0.2467
   2.300   0.2510   0.01499   0.00350  -0.0005  0.1500  0.1500  -0.6814   0.0000   0.0000   0.0000   0.2466
   2.400   0.2618   0.01501   0.00353  -0.0005  0.1500  0.1500  -0.7163   0.0000   0.0000   0.0000   0.2465
   2.500   0.2726   0.01503   0.00357  -0.0005  0.1500  0.1500  -0.7524   0.0000   0.0000   0.0000   0.2464
   2.600   0.2834   0.01506   0.00361  -0.0005  0.1500  0.1500  -0.7998   0.0000   0.0000   0.0000   0.2463
   2.700   0.2942   0.01508   0.00366  -0.0005  0.1500  0.1500  -0.8477   0.0000   0.0000   0.0000   0.2462
   2.800   0.3049   0.01510   0.00370  -0.0005  0.1500  0.1500  -0.8962   0.0000   0.0000   0.0000   0.2461
   2.900   0.3157   0.01513   0.00375  -0.0005  0.1500  0.1500  -0.9452   0.0000   0.0000   0.0000   0.2460
   3.000   0.3264   0.01516   0.00380  -0.0005  0.1500  0.1500  -0.9948   0.0000   0.0000   0.0000   0.2458
   3.100   0.3371   0.01518   0.00385  -0.0005  0.1500  0.1500  -1.0449   0.0000   0.0000   0.0000   0.2457
   3.200   0.3478   0.01521   0.00391  -0.0005  0.1500  0.1500  -1.0955   0.0000   0.0000   0.0000   0.2456
   3.300   0.3585   0.01524   0.00396  -0.0004  0.1500  0.1500  -1.1467   0.0000   0.0000   0.0000   0.2454
   3.400   0.3691   0.01527   0.00402  -0.0004  0.1500  0.1500  -1.1984   0.0000   0.0000   0.0000   0.2453
   3.500   0.3798   0.01530   0.00408  -0.0004  0.1500  0.1500  -1.2506   0.0000   0.0000   0.0000   0.2451
   3.600   0.3904   0.01534   0.00414  -0.0004  0.1500  0.1500  -1.3034   0.0000   0.0000   0.0000   0.2450
   3.700   0.4010   0.01537   0.00420  -0.0003  0.1500  0.1500  -1.3566   0.0000   0.0000   0.0000   0.2448
   3.800   0.4116   0.01541   0.00427  -0.0003  0.1500  0.1500  -1.4104   0.0000   0.0000   0.0000   0.2447
   3.900   0.4221   0.01544   0.00434  -0.0002  0.1500  0.1500  -1.4646   0.0000   0.0000   0.0000   0.2445
   4.000   0.4327   0.01548   0.00441  -0.0002  0.1500  0.1500  -1.5193   0.0000   0.0000   0.0000   0.2443
   4.100   0.4432   0.01552   0.00448  -0.0002  0.1500  0.1500  -1.5744   0.0000   0.0000   0.0000   0.2441
   4.200   0.4537   0.01555   0.00455  -0.0001  0.1500  0.1500  -1.6300   0.0000   0.0000   0.0000   0.2440
   4.300   0.4641   0.01559   0.00463  -0.0000  0.1500  0.1500  -1.6861   0.0000   0.0000   0.0000   0.2438
   4.400   0.4746   0.01564   0.00471   0.0000  0.1500  0.1500  -1.7425   0.0000   0.0000   0.0000   0.2436
   4.500   0.4849   0.01568   0.00479   0.0001  0.1500  0.1500  -1.7993   0.0000   0.0000   0.0000   0.2434
   4.600   0.4953   0.01572   0.00488   0.0002  0.1500  0.1500  -1.8565   0.0000   0.0000   0.0000   0.2431
   4.700   0.5056   0.01577   0.00497   0.0003  0.1500  0.1500  -1.9141   0.0000   0.0000   0.0000   0.2429
   4.800   0.5159   0.01582   0.00506   0.0004  0.1500  0.1500  -1.9719   0.0000   0.0000   0.0000   0.2427
   4.900   0.5261   0.01586   0.00516   0.0005  0.1500  0.1500  -2.0301   0.0000   0.0000   0.0000   0.2424
   5.000   0.5364   0.01592   0.00541   0.0006  0.1500  0.1500  -2.1134   0.0000   0.0000   0.0000   0.2421
   5.100   0.5466   0.01597   0.00552   0.0007  0.1500  0.1500  -2.1750   0.0000   0.0000   0.0000   0.2419
   5.200   0.5567   0.01602   0.00562   0.0008  0.1500  0.1500  -2.2357   0.0000   0.0000   0.0000   0.2416
   5.300   0.5668   0.01607   0.00573   0.0010  0.1500  0.1500  -2.2960   0.0000   0.0000   0.0000   0.2413
   5.400   0.5768   0.01613   0.00585   0.0011  0.1500  0.1500  -2.3561   0.0000   0.0000   0.0000   0.2410
   5.500   0.5868   0.01619   0.00596   0.0012  0.1500  0.1500  -2.4161   0.0000   0.0000   0.0000   0.2408
   5.600   0.5968   0.01624   0.00608   0.0014  0.1500  0.1500  -2.4760   0.0000   0.0000   0.0000   0.2405
   5.700   0.6068   0.01630   0.00621   0.0016  0.1500  0.1500  -2.5356   0.0000   0.0000   0.0000   0.2401
   5.800   0.6166   0.01637   0.00636   0.0017  0.1500  0.1500  -2.5904   0.0000   0.0000   0.0000   0.2398
   5.900   0.6265   0.01643   0.00650   0.0019  0.1500  0.1500  -2.6476   0.0000   0.0000   0.0000   0.2395
   6.000   0.6363   0.01649   0.00665   0.0022  0.1500  0.1500  -2.7041   0.0000   0.0000   0.0000   0.2391
   6.100   0.6458   0.01658   0.00685   0.0025  0.1485  0.1500  -2.7563   0.0000   0.0000   0.0000   0.2386
   6.200   0.6477   0.01709   0.00718   0.0037  0.1207  0.1500  -2.7870   0.0000   0.0000   0.0000   0.2366
   6.300   0.6499   0.01756   0.00754   0.0050  0.0942  0.1500  -2.8130   0.0000   0.0000   0.0000   0.2345
   6.400   0.6516   0.01801   0.00787   0.0062  0.0831  0.1500  -2.8426   0.0000   0.0000   0.0000   0.2325
   6.500   0.6528   0.01846   0.00824   0.0077  0.0738  0.1500  -2.8636   0.0000   0.0000   0.0000   0.2301
   6.600   0.6581   0.01868   0.00850   0.0086  0.0698  0.1500  -2.9021   0.0000   0.0000   0.0000   0.2288
   6.700   0.6621   0.01895   0.00879   0.0096  0.0660  0.1500  -2.9360   0.0000   0.0000   0.0000   0.2272
   6.800   0.6649   0.01924   0.00907   0.0109  0.0628  0.1500  -2.9668   0.0000   0.0000   0.0000   0.2253
   6.900   0.6669   0.01954   0.00937   0.0122  0.0598  0.1500  -2.9943   0.0000   0.0000   0.0000   0.2232
   7.000   0.6672   0.01987   0.00969   0.0139  0.0571  0.1500  -3.0139   0.0000   0.0000   0.0000   0.2205
   7.100   0.6640   0.02018   0.01003   0.0161  0.0549  0.1500  -3.0220   0.0000   0.0000   0.0000   0.2169
   7.200   0.6593   0.02055   0.01043   0.0186  0.0529  0.1500  -3.0231   0.0000   0.0000   0.0000   0.2128
   7.300   0.6541   0.02103   0.01096   0.0211  0.0511  0.1500  -3.0177   0.0000   0.0000   0.0000   0.2086
   7.400   0.6529   0.02147   0.01143   0.0229  0.0498  0.1500  -3.0261   0.0000   0.0000   0.0000   0.2057
   7.500   0.6572   0.02167   0.01166   0.0239  0.0493  0.1500  -3.0625   0.0000   0.0000   0.0000   0.2043
   7.600   0.6611   0.02190   0.01192   0.0248  0.0486  0.1500  -3.0963   0.0000   0.0000   0.0000   0.2029
   7.700   0.6646   0.02215   0.01221   0.0259  0.0478  0.1500  -3.1264   0.0000   0.0000   0.0000   0.2014
   7.800   0.6678   0.02244   0.01253   0.0270  0.0469  0.1500  -3.1531   0.0000   0.0000   0.0000   0.1999
   7.900   0.6710   0.02276   0.01289   0.0280  0.0459  0.1500  -3.1771   0.0000   0.0000   0.0000   0.1984
   8.000   0.6743   0.02310   0.01327   0.0291  0.0449  0.1500  -3.1991   0.0000   0.0000   0.0000   0.1969
   8.100   0.6778   0.02347   0.01368   0.0300  0.0438  0.1500  -3.2198   0.0000   0.0000   0.0000   0.1956
   8.200   0.6816   0.02385   0.01410   0.0310  0.0428  0.1500  -3.2402   0.0000   0.0000   0.0000   0.1943
   8.300   0.6860   0.02425   0.01454   0.0319  0.0419  0.1500  -3.2608   0.0000   0.0000   0.0000   0.1932
   8.400   0.6909   0.02466   0.01499   0.0327  0.0410  0.1500  -3.2823   0.0000   0.0000   0.0000   0.1923
   8.500   0.6961   0.02512   0.01555   0.0334  0.0399  0.1500  -3.3008   0.0000   0.0000   0.0000   0.1914
   8.600   0.7021   0.02561   0.01608   0.0341  0.0389  0.1500  -3.3196   0.0000   0.0000   0.0000   0.1908
   8.700   0.7091   0.02608   0.01660   0.0346  0.0383  0.1500  -3.3433   0.0000   0.0000   0.0000   0.1904
   8.800   0.7167   0.02657   0.01714   0.0351  0.0378  0.1500  -3.3691   0.0000   0.0000   0.0000   0.1902
   8.900   0.7250   0.02708   0.01769   0.0354  0.0373  0.1500  -3.3961   0.0000   0.0000   0.0000   0.1902
   9.000   0.7336   0.02761   0.01828   0.0357  0.0369  0.1500  -3.4239   0.0000   0.0000   0.0000   0.1903
   9.100   0.7427   0.02817   0.01890   0.0360  0.0366  0.1500  -3.4519   0.0000   0.0000   0.0000   0.1905
   9.200   0.7520   0.02877   0.01956   0.0362  0.0364  0.1500  -3.4800   0.0000   0.0000   0.0000   0.1907
   9.300   0.7615   0.02940   0.02026   0.0363  0.0362  0.1500  -3.5076   0.0000   0.0000   0.0000   0.1911
   9.400   0.7709   0.03007   0.02101   0.0365  0.0360  0.1500  -3.5343   0.0000   0.0000   0.0000   0.1914
   9.500   0.7800   0.03078   0.02180   0.0367  0.0359  0.1500  -3.5594   0.0000   0.0000   0.0000   0.1916
   9.600   0.7886   0.03153   0.02264   0.0369  0.0359  0.1500  -3.5825   0.0000   0.0000   0.0000   0.1918
   9.700   0.7965   0.03231   0.02351   0.0372  0.0359  0.1500  -3.6031   0.0000   0.0000   0.0000   0.1918
   9.800   0.8036   0.03312   0.02441   0.0376  0.0359  0.1500  -3.6211   0.0000   0.0000   0.0000   0.1916
   9.900   0.8096   0.03396   0.02534   0.0380  0.0360  0.1500  -3.6361   0.0000   0.0000   0.0000   0.1913
  10.000   0.8147   0.03482   0.02629   0.0386  0.0360  0.1500  -3.6484   0.0000   0.0000   0.0000   0.1908
  10.100   0.8186   0.03569   0.02726   0.0393  0.0361  0.1500  -3.6578   0.0000   0.0000   0.0000   0.1901
  10.200   0.8216   0.03658   0.02824   0.0401  0.0363  0.1500  -3.6646   0.0000   0.0000   0.0000   0.1892
  10.300   0.8236   0.03745   0.02920   0.0410  0.0364  0.1500  -3.6707   0.0000   0.0000   0.0000   0.1881
  10.400   0.8246   0.03828   0.03011   0.0420  0.0364  0.1500  -3.6774   0.0000   0.0000   0.0000   0.1869
  10.500   0.8251   0.03909   0.03099   0.0429  0.0364  0.1500  -3.6849   0.0000   0.0000   0.0000   0.1856
  10.600   0.8252   0.03988   0.03185   0.0439  0.0363  0.1500  -3.6930   0.0000   0.0000   0.0000   0.1842
  10.700   0.8247   0.04065   0.03270   0.0450  0.0362  0.1500  -3.7012   0.0000   0.0000   0.0000   0.1828
  10.800   0.8236   0.04141   0.03352   0.0460  0.0361  0.1500  -3.7087   0.0000   0.0000   0.0000   0.1813
  10.900   0.8220   0.04216   0.03434   0.0470  0.0360  0.1500  -3.7163   0.0000   0.0000   0.0000   0.1798
  11.000   0.8203   0.04291   0.03515   0.0481  0.0359  0.1500  -3.7242   0.0000   0.0000   0.0000   0.1783
  11.100   0.8184   0.04366   0.03596   0.0490  0.0357  0.1500  -3.7321   0.0000   0.0000   0.0000   0.1768
  11.200   0.8162   0.04441   0.03676   0.0500  0.0355  0.1500  -3.7396   0.0000   0.0000   0.0000   0.1753
  11.300   0.8133   0.04517   0.03758   0.0510  0.0354  0.1500  -3.7458   0.0000   0.0000   0.0000   0.1737
  11.400   0.8103   0.04595   0.03842   0.0519  0.0352  0.1500  -3.7517   0.0000   0.0000   0.0000   0.1722
  11.500   0.8072   0.04674   0.03926   0.0527  0.0350  0.1500  -3.7576   0.0000   0.0000   0.0000   0.1707
  11.600   0.8041   0.04755   0.04013   0.0536  0.0348  0.1500  -3.7635   0.0000   0.0000   0.0000   0.1693
  11.700   0.8004   0.04839   0.04102   0.0544  0.0347  0.1500  -3.7677   0.0000   0.0000   0.0000   0.1678
  11.800   0.7963   0.04926   0.04193   0.0551  0.0345  0.1500  -3.7702   0.0000   0.0000   0.0000   0.1663
  11.900   0.7922   0.05015   0.04288   0.0558  0.0343  0.1500  -3.7725   0.0000   0.0000   0.0000   0.1649
  12.000   0.7881   0.05106   0.04384   0.0564  0.0342  0.1500  -3.7747   0.0000   0.0000   0.0000   0.1635
  12.100   0.7837   0.05200   0.04483   0.0570  0.0340  0.1500  -3.7753   0.0000   0.0000   0.0000   0.1622
  12.200   0.7785   0.05300   0.04589   0.0576  0.0339  0.1500  -3.7722   0.0000   0.0000   0.0000   0.1608
  12.300   0.7733   0.05405   0.04698   0.0580  0.0338  0.1500  -3.7684   0.0000   0.0000   0.0000   0.1595
  12.400   0.7681   0.05513   0.04812   0.0584  0.0336  0.1500  -3.7642   0.0000   0.0000   0.0000   0.1582
  12.500   0.7626   0.05627   0.04931   0.0588  0.0335  0.1500  -3.7576   0.0000   0.0000   0.0000   0.1570
  12.600   0.7559   0.05753   0.05062   0.0590  0.0335  0.1500  -3.7448   0.0000   0.0000   0.0000   0.1557
  12.700   0.7492   0.05884   0.05198   0.0592  0.0334  0.1500  -3.7306   0.0000   0.0000   0.0000   0.1545
  12.800   0.7424   0.06021   0.05341   0.0594  0.0334  0.1500  -3.7150   0.0000   0.0000   0.0000   0.1535
  12.900   0.7347   0.06172   0.05498   0.0594  0.0334  0.1500  -3.6927   0.0000   0.0000   0.0000   0.1523
  13.000   0.7254   0.06341   0.05672   0.0593  0.0334  0.1500  -3.6614   0.0000   0.0000   0.0000   0.1512
  13.100   0.7161   0.06519   0.05856   0.0591  0.0335  0.1500  -3.6274   0.0000   0.0000   0.0000   0.1502
  13.200   0.7055   0.06718   0.06062   0.0587  0.0337  0.1500  -3.5838   0.0000   0.0000   0.0000   0.1492
  13.300   0.6918   0.06961   0.06312   0.0580  0.0340  0.1500  -3.5202   0.0000   0.0000   0.0000   0.1482
  13.400   0.6681   0.07343   0.06704   0.0567  0.0348  0.1500  -3.3890   0.0000   0.0000   0.0000   0.1468
  13.500   0.6297   0.07980   0.07353   0.0540  0.0366  0.1500  -3.1535   0.0000   0.0000   0.0000   0.1456
  13.600   0.5842   0.08854   0.08237   0.0493  0.0391  0.1500  -2.8525   0.0000   0.0000   0.0000   0.1465
  13.700   0.5450   0.09854   0.09239   0.0437  0.0417  0.1500  -2.5387   0.0000   0.0000   0.0000   0.1505
  13.800   0.5258   0.10552   0.09935   0.0401  0.0433  0.1500  -2.3406   0.0000   0.0000   0.0000   0.1544
  13.900   0.5170   0.10953   0.10334   0.0381  0.0441  0.1500  -2.2438   0.0000   0.0000   0.0000   0.1568
  14.000   0.5108   0.11286   0.10666   0.0366  0.0448  0.1500  -2.1709   0.0000   0.0000   0.0000   0.1589
  14.100   0.5061   0.11586   0.10964   0.0352  0.0455  0.1500  -2.1101   0.0000   0.0000   0.0000   0.1609
  14.200   0.5022   0.11866   0.11244   0.0339  0.0461  0.1500  -2.0566   0.0000   0.0000   0.0000   0.1628
  14.300   0.4988   0.12140   0.11516   0.0327  0.0468  0.1500  -2.0067   0.0000   0.0000   0.0000   0.1646
  15.400   0.4947   0.14722   0.14096   0.0226  0.0498  0.1500  -1.6786   0.0000   0.0000   0.0000   0.1838
  15.500   0.4959   0.14898   0.14272   0.0218  0.0498  0.1500  -1.6638   0.0000   0.0000   0.0000   0.1854
  15.600   0.4971   0.15074   0.14448   0.0210  0.0497  0.1500  -1.6497   0.0000   0.0000   0.0000   0.1870
  15.700   0.4985   0.15251   0.14625   0.0202  0.0497  0.1500  -1.6362   0.0000   0.0000   0.0000   0.1886
  15.800   0.5000   0.15426   0.14800   0.0194  0.0497  0.1500  -1.6233   0.0000   0.0000   0.0000   0.1902
  15.900   0.5015   0.15598   0.14973   0.0186  0.0497  0.1500  -1.6109   0.0000   0.0000   0.0000   0.1918
  16.000   0.5031   0.15768   0.15143   0.0179  0.0497  0.1500  -1.5989   0.0000   0.0000   0.0000   0.1934
  16.100   0.5047   0.15935   0.15311   0.0171  0.0497  0.1500  -1.5874   0.0000   0.0000   0.0000   0.1949
  16.200   0.5064   0.16101   0.15477   0.0163  0.0497  0.1500  -1.5763   0.0000   0.0000   0.0000   0.1964
  16.300   0.5081   0.16266   0.15641   0.0156  0.0497  0.1500  -1.5656   0.0000   0.0000   0.0000   0.1980
  16.400   0.5099   0.16428   0.15804   0.0148  0.0496  0.1500  -1.5552   0.0000   0.0000   0.0000   0.1994
  16.500   0.5116   0.16590   0.15966   0.0141  0.0496  0.1500  -1.5452   0.0000   0.0000   0.0000   0.2009
  16.600   0.5134   0.16749   0.16126   0.0134  0.0496  0.1500  -1.5356   0.0000   0.0000   0.0000   0.2024
  16.700   0.5153   0.16908   0.16284   0.0126  0.0496  0.1500  -1.5399   0.0000   0.0000   0.0000   0.2038
  16.800   0.5171   0.17064   0.16441   0.0119  0.0495  0.1500  -1.5458   0.0000   0.0000   0.0000   0.2052
  16.900   0.5190   0.17220   0.16597   0.0112  0.0495  0.1500  -1.5513   0.0000   0.0000   0.0000   0.2066
  17.000   0.5208   0.17373   0.16751   0.0104  0.0495  0.1500  -1.5565   0.0000   0.0000   0.0000   0.2079
  17.100   0.5227   0.17525   0.16903   0.0097  0.0494  0.1500  -1.5610   0.0000   0.0000   0.0000   0.2093
  17.200   0.5245   0.17674   0.17053   0.0090  0.0494  0.1500  -1.5646   0.0000   0.0000   0.0000   0.2106
  17.300   0.5263   0.17821   0.17199   0.0083  0.0493  0.1500  -1.5669   0.0000   0.0000   0.0000   0.2119
  17.400   0.5281   0.17963   0.17342   0.0076  0.0492  0.1500  -1.5675   0.0000   0.0000   0.0000   0.2132
  17.500   0.5298   0.18100   0.17479   0.0069  0.0491  0.1500  -1.5658   0.0000   0.0000   0.0000   0.2145
  17.600   0.5314   0.18223   0.17602   0.0062  0.0489  0.1500  -1.5613   0.0000   0.0000   0.0000   0.2158
  17.700   0.5328   0.18312   0.17691   0.0055  0.0485  0.1500  -1.5540   0.0000   0.0000   0.0000   0.2170
  17.800   0.5276   0.18204   0.17581   0.0041  0.0450  0.1500  -1.5089   0.0000   0.0000   0.0000   0.2192
  17.900   0.5277   0.18280   0.17656   0.0032  0.0403  0.1500  -1.5038   0.0000   0.0000   0.0000   0.2208
  18.000   0.5303   0.18371   0.17748   0.0026  0.0373  0.1500  -1.5236   0.0000   0.0000   0.0000   0.2218
  18.100   0.5338   0.18452   0.17829   0.0021  0.0349  0.1500  -1.5544   0.0000   0.0000   0.0000   0.2226
  18.200   0.5381   0.18519   0.17898   0.0017  0.0330  0.1500  -1.5954   0.0000   0.0000   0.0000   0.2231
  18.300   0.5433   0.18575   0.17955   0.0014  0.0315  0.1500  -1.6476   0.0000   0.0000   0.0000   0.2235
  18.400   0.5494   0.18617   0.17998   0.0013  0.0303  0.1500  -1.7137   0.0000   0.0000   0.0000   0.2236
  18.500   0.5572   0.18645   0.18028   0.0013  0.0292  0.1500  -1.7997   0.0000   0.0000   0.0000   0.2234
  18.600   0.5646   0.18681   0.18067   0.0013  0.0282  0.1500  -1.8846   0.0000   0.0000   0.0000   0.2233
  18.700   0.5685   0.18787   0.18174   0.0009  0.0274  0.1500  -1.9236   0.0000   0.0000   0.0000   0.2238
  18.800   0.5702   0.18992   0.18380   0.0003  0.0266  0.1500  -1.9187   0.0000   0.0000   0.0000   0.2248
  18.900   0.5679   0.19375   0.18762  -0.0008  0.0259  0.1500  -1.8335   0.0000   0.0000   0.0000   0.2267
  19.000   0.5568   0.20209   0.19589  -0.0030  0.0250  0.1500  -1.5771   0.0000   0.0000   0.0000   0.2309
  19.100   0.5588   0.20383   0.19763  -0.0037  0.0250  0.1500  -1.5639   0.0000   0.0000   0.0000   0.2319
  19.200   0.5609   0.20555   0.19935  -0.0044  0.0250  0.1500  -1.5520   0.0000   0.0000   0.0000   0.2330
  19.300   0.5630   0.20725   0.20106  -0.0050  0.0250  0.1500  -1.5413   0.0000   0.0000   0.0000   0.2340
  19.400   0.5651   0.20893   0.20274  -0.0057  0.0250  0.1500  -1.5316   0.0000   0.0000   0.0000   0.2350
  19.500   0.5673   0.21060   0.20441  -0.0063  0.0250  0.1500  -1.5227   0.0000   0.0000   0.0000   0.2360
  19.600   0.5695   0.21224   0.20606  -0.0069  0.0250  0.1500  -1.5160   0.0000   0.0000   0.0000   0.2370
  19.700   0.5718   0.21388   0.20770  -0.0076  0.0249  0.1500  -1.5105   0.0000   0.0000   0.0000   0.2380
  19.800   0.5740   0.21550   0.20933  -0.0082  0.0249  0.1500  -1.5052   0.0000   0.0000   0.0000   0.2389
  19.900   0.5763   0.21711   0.21094  -0.0088  0.0249  0.1500  -1.5002   0.0000   0.0000   0.0000   0.2398
  20.000   0.5786   0.21871   0.21254  -0.0095  0.0249  0.1500  -1.4955   0.0000   0.0000   0.0000   0.2408


