xflr5 v6.61

 Calculated polar for: NACA 642-015 AIRFOIL

 1 1 Reynolds number fixed          Mach number fixed         

 xtrf =   1.000 (top)        1.000 (bottom)
 Mach =   0.061     Re =     0.225 e 6     Ncrit =   9.000

  alpha     CL        CD       CDp       Cm    Top Xtr Bot Xtr   Cpmin    Chinge    XCp    
 ------- -------- --------- --------- -------- ------- ------- -------- --------- ---------
 -10.000  -0.8061   0.03247   0.02636  -0.0409  1.0000  0.0360  -3.6405   0.0000   0.0000   0.0000   0.1873
  -9.900  -0.8008   0.03163   0.02544  -0.0404  1.0000  0.0359  -3.6274   0.0000   0.0000   0.0000   0.1878
  -9.800  -0.7947   0.03082   0.02455  -0.0399  1.0000  0.0359  -3.6117   0.0000   0.0000   0.0000   0.1880
  -9.700  -0.7878   0.03004   0.02370  -0.0395  1.0000  0.0359  -3.5934   0.0000   0.0000   0.0000   0.1882
  -9.600  -0.7802   0.02929   0.02288  -0.0392  1.0000  0.0359  -3.5728   0.0000   0.0000   0.0000   0.1882
  -9.500  -0.7722   0.02858   0.02211  -0.0389  1.0000  0.0360  -3.5503   0.0000   0.0000   0.0000   0.1881
  -9.400  -0.7639   0.02791   0.02138  -0.0386  1.0000  0.0361  -3.5262   0.0000   0.0000   0.0000   0.1880
  -9.300  -0.7555   0.02728   0.02069  -0.0383  1.0000  0.0362  -3.5011   0.0000   0.0000   0.0000   0.1880
  -9.200  -0.7473   0.02669   0.02006  -0.0380  1.0000  0.0364  -3.4755   0.0000   0.0000   0.0000   0.1879
  -9.100  -0.7394   0.02614   0.01947  -0.0376  1.0000  0.0367  -3.4499   0.0000   0.0000   0.0000   0.1880
  -9.000  -0.7322   0.02563   0.01892  -0.0371  1.0000  0.0369  -3.4249   0.0000   0.0000   0.0000   0.1882
  -8.900  -0.7258   0.02517   0.01843  -0.0365  1.0000  0.0373  -3.4010   0.0000   0.0000   0.0000   0.1887
  -8.800  -0.7206   0.02475   0.01799  -0.0357  1.0000  0.0376  -3.3792   0.0000   0.0000   0.0000   0.1896
  -8.700  -0.7175   0.02440   0.01762  -0.0346  1.0000  0.0380  -3.3613   0.0000   0.0000   0.0000   0.1910
  -8.600  -0.7183   0.02415   0.01736  -0.0330  1.0000  0.0383  -3.3498   0.0000   0.0000   0.0000   0.1935
  -8.500  -0.7271   0.02413   0.01735  -0.0301  1.0000  0.0384  -3.3520   0.0000   0.0000   0.0000   0.1982
  -8.200  -0.7020   0.02268   0.01573  -0.0298  0.9936  0.0415  -3.2799   0.0000   0.0000   0.0000   0.1973
  -8.100  -0.6901   0.02215   0.01516  -0.0304  0.9901  0.0429  -3.2467   0.0000   0.0000   0.0000   0.1958
  -8.000  -0.6786   0.02163   0.01461  -0.0310  0.9861  0.0444  -3.2130   0.0000   0.0000   0.0000   0.1942
  -7.900  -0.6669   0.02117   0.01410  -0.0316  0.9820  0.0460  -3.1763   0.0000   0.0000   0.0000   0.1926
  -7.800  -0.6548   0.02075   0.01364  -0.0324  0.9780  0.0475  -3.1335   0.0000   0.0000   0.0000   0.1907
  -7.700  -0.6421   0.02041   0.01326  -0.0332  0.9739  0.0488  -3.0828   0.0000   0.0000   0.0000   0.1885
  -7.600  -0.6286   0.02012   0.01294  -0.0341  0.9700  0.0497  -3.0246   0.0000   0.0000   0.0000   0.1860
  -7.500  -0.6209   0.01936   0.01212  -0.0344  0.9649  0.0523  -3.0062   0.0000   0.0000   0.0000   0.1849
  -7.400  -0.6155   0.01854   0.01125  -0.0344  0.9590  0.0565  -2.9940   0.0000   0.0000   0.0000   0.1845
  -7.300  -0.6076   0.01798   0.01069  -0.0348  0.9527  0.0608  -2.9595   0.0000   0.0000   0.0000   0.1833
  -7.200  -0.6056   0.01764   0.01036  -0.0336  0.9460  0.0637  -2.9323   0.0000   0.0000   0.0000   0.1851
  -7.100  -0.6062   0.01738   0.01009  -0.0318  0.9390  0.0662  -2.9101   0.0000   0.0000   0.0000   0.1882
  -7.000  -0.6060   0.01714   0.00983  -0.0301  0.9318  0.0690  -2.8858   0.0000   0.0000   0.0000   0.1912
  -6.900  -0.6054   0.01695   0.00960  -0.0284  0.9249  0.0720  -2.8598   0.0000   0.0000   0.0000   0.1941
  -6.700  -0.6064   0.01635   0.00903  -0.0246  0.9115  0.0847  -2.8193   0.0000   0.0000   0.0000   0.2007
  -6.600  -0.6072   0.01603   0.00880  -0.0227  0.9045  0.0936  -2.7956   0.0000   0.0000   0.0000   0.2040
  -6.500  -0.6066   0.01573   0.00855  -0.0211  0.8985  0.1140  -2.7732   0.0000   0.0000   0.0000   0.2067
  -6.400  -0.6083   0.01528   0.00826  -0.0192  0.8941  0.1375  -2.7530   0.0000   0.0000   0.0000   0.2101
  -6.300  -0.6087   0.01484   0.00798  -0.0175  0.8893  0.1680  -2.7277   0.0000   0.0000   0.0000   0.2130
  -6.200  -0.6093   0.01437   0.00769  -0.0158  0.8842  0.2041  -2.7015   0.0000   0.0000   0.0000   0.2160
  -6.100  -0.6107   0.01383   0.00738  -0.0140  0.8790  0.2481  -2.6767   0.0000   0.0000   0.0000   0.2192
  -6.000  -0.6122   0.01327   0.00708  -0.0121  0.8739  0.2987  -2.6516   0.0000   0.0000   0.0000   0.2224
  -5.900  -0.6131   0.01275   0.00685  -0.0102  0.8691  0.3544  -2.6239   0.0000   0.0000   0.0000   0.2257
  -5.800  -0.6124   0.01236   0.00682  -0.0084  0.8646  0.4124  -2.5909   0.0000   0.0000   0.0000   0.2287
  -5.700  -0.6057   0.01228   0.00677  -0.0075  0.8605  0.4492  -2.5441   0.0000   0.0000   0.0000   0.2301
  -5.600  -0.5992   0.01223   0.00685  -0.0065  0.8561  0.4731  -2.4927   0.0000   0.0000   0.0000   0.2318
  -5.500  -0.5906   0.01231   0.00691  -0.0060  0.8508  0.4911  -2.4360   0.0000   0.0000   0.0000   0.2326
  -5.400  -0.5807   0.01231   0.00685  -0.0058  0.8480  0.5015  -2.3760   0.0000   0.0000   0.0000   0.2329
  -5.300  -0.5713   0.01227   0.00689  -0.0054  0.8453  0.5135  -2.3165   0.0000   0.0000   0.0000   0.2336
  -5.200  -0.5614   0.01227   0.00693  -0.0050  0.8422  0.5234  -2.2557   0.0000   0.0000   0.0000   0.2341
  -5.100  -0.5513   0.01229   0.00694  -0.0047  0.8389  0.5318  -2.1945   0.0000   0.0000   0.0000   0.2346
  -5.000  -0.5412   0.01232   0.00692  -0.0045  0.8355  0.5389  -2.1328   0.0000   0.0000   0.0000   0.2350
  -4.900  -0.5310   0.01234   0.00688  -0.0042  0.8321  0.5445  -2.0688   0.0000   0.0000   0.0000   0.2353
  -4.800  -0.5208   0.01238   0.00669  -0.0040  0.8287  0.5487  -1.9895   0.0000   0.0000   0.0000   0.2358
  -4.700  -0.5106   0.01235   0.00664  -0.0037  0.8254  0.5541  -1.9313   0.0000   0.0000   0.0000   0.2361
  -4.600  -0.5004   0.01231   0.00663  -0.0034  0.8223  0.5603  -1.8732   0.0000   0.0000   0.0000   0.2367
  -4.500  -0.4902   0.01233   0.00667  -0.0030  0.8192  0.5661  -1.8154   0.0000   0.0000   0.0000   0.2374
  -4.400  -0.4801   0.01241   0.00677  -0.0026  0.8161  0.5730  -1.7578   0.0000   0.0000   0.0000   0.2382
  -4.300  -0.4701   0.01254   0.00689  -0.0021  0.8130  0.5803  -1.7006   0.0000   0.0000   0.0000   0.2392
  -4.200  -0.4600   0.01268   0.00701  -0.0017  0.8098  0.5872  -1.6441   0.0000   0.0000   0.0000   0.2401
  -4.100  -0.4499   0.01285   0.00712  -0.0013  0.8061  0.5929  -1.5883   0.0000   0.0000   0.0000   0.2409
  -4.000  -0.4396   0.01307   0.00729  -0.0011  0.8018  0.5974  -1.5328   0.0000   0.0000   0.0000   0.2415
  -3.900  -0.4289   0.01317   0.00737  -0.0009  0.7989  0.6020  -1.4770   0.0000   0.0000   0.0000   0.2418
  -3.800  -0.4181   0.01309   0.00735  -0.0007  0.7970  0.6099  -1.4211   0.0000   0.0000   0.0000   0.2423
  -3.700  -0.4070   0.01321   0.00753  -0.0004  0.7947  0.6161  -1.3642   0.0000   0.0000   0.0000   0.2431
  -3.600  -0.3957   0.01338   0.00774  -0.0001  0.7923  0.6214  -1.3077   0.0000   0.0000   0.0000   0.2438
  -3.500  -0.3845   0.01354   0.00791   0.0001  0.7896  0.6264  -1.2521   0.0000   0.0000   0.0000   0.2445
  -3.400  -0.3734   0.01368   0.00805   0.0003  0.7868  0.6310  -1.1977   0.0000   0.0000   0.0000   0.2451
  -3.300  -0.3624   0.01378   0.00814   0.0005  0.7839  0.6351  -1.1445   0.0000   0.0000   0.0000   0.2457
  -3.200  -0.3516   0.01384   0.00819   0.0006  0.7809  0.6386  -1.0924   0.0000   0.0000   0.0000   0.2463
  -3.100  -0.3408   0.01389   0.00821   0.0008  0.7780  0.6417  -1.0414   0.0000   0.0000   0.0000   0.2467
  -3.000  -0.3300   0.01392   0.00821   0.0009  0.7752  0.6442  -0.9911   0.0000   0.0000   0.0000   0.2472
  -2.900  -0.3193   0.01393   0.00818   0.0010  0.7724  0.6461  -0.9416   0.0000   0.0000   0.0000   0.2476
  -2.800  -0.3085   0.01393   0.00813   0.0010  0.7697  0.6476  -0.8927   0.0000   0.0000   0.0000   0.2480
  -2.700  -0.2977   0.01392   0.00808   0.0011  0.7670  0.6488  -0.8443   0.0000   0.0000   0.0000   0.2483
  -2.600  -0.2869   0.01391   0.00803   0.0011  0.7643  0.6497  -0.7966   0.0000   0.0000   0.0000   0.2487
  -2.500  -0.2769   0.01367   0.00774   0.0012  0.7615  0.6524  -0.7518   0.0000   0.0000   0.0000   0.2490
  -2.400  -0.2665   0.01349   0.00753   0.0012  0.7586  0.6551  -0.7160   0.0000   0.0000   0.0000   0.2493
  -2.300  -0.2559   0.01341   0.00743   0.0012  0.7554  0.6574  -0.6819   0.0000   0.0000   0.0000   0.2496
  -2.200  -0.2452   0.01343   0.00743   0.0012  0.7514  0.6594  -0.6527   0.0000   0.0000   0.0000   0.2498
  -2.100  -0.2340   0.01342   0.00741   0.0011  0.7490  0.6614  -0.6265   0.0000   0.0000   0.0000   0.2497
  -2.000  -0.2228   0.01337   0.00738   0.0011  0.7475  0.6634  -0.6003   0.0000   0.0000   0.0000   0.2497
  -1.900  -0.2116   0.01335   0.00737   0.0010  0.7457  0.6655  -0.5757   0.0000   0.0000   0.0000   0.2498
  -1.800  -0.2004   0.01335   0.00737   0.0010  0.7437  0.6676  -0.5676   0.0000   0.0000   0.0000   0.2500
  -1.700  -0.1892   0.01334   0.00737   0.0010  0.7415  0.6697  -0.5607   0.0000   0.0000   0.0000   0.2502
  -1.600  -0.1780   0.01334   0.00737   0.0010  0.7392  0.6718  -0.5538   0.0000   0.0000   0.0000   0.2504
  -1.500  -0.1668   0.01333   0.00736   0.0009  0.7368  0.6738  -0.5470   0.0000   0.0000   0.0000   0.2506
  -1.400  -0.1556   0.01332   0.00735   0.0009  0.7344  0.6758  -0.5403   0.0000   0.0000   0.0000   0.2507
  -1.300  -0.1444   0.01330   0.00732   0.0008  0.7320  0.6777  -0.5336   0.0000   0.0000   0.0000   0.2508
  -1.200  -0.1333   0.01330   0.00731   0.0008  0.7296  0.6799  -0.5269   0.0000   0.0000   0.0000   0.2511
  -1.100  -0.1222   0.01329   0.00730   0.0008  0.7273  0.6821  -0.5202   0.0000   0.0000   0.0000   0.2515
  -1.000  -0.1111   0.01328   0.00728   0.0008  0.7249  0.6844  -0.5135   0.0000   0.0000   0.0000   0.2520
  -0.900  -0.1000   0.01327   0.00726   0.0007  0.7227  0.6865  -0.5068   0.0000   0.0000   0.0000   0.2525
  -0.800  -0.0889   0.01325   0.00722   0.0007  0.7204  0.6885  -0.5002   0.0000   0.0000   0.0000   0.2530
  -0.700  -0.0778   0.01323   0.00718   0.0006  0.7183  0.6903  -0.4937   0.0000   0.0000   0.0000   0.2534
  -0.600  -0.0667   0.01321   0.00714   0.0006  0.7161  0.6920  -0.4871   0.0000   0.0000   0.0000   0.2540
  -0.500  -0.0556   0.01320   0.00711   0.0005  0.7140  0.6936  -0.4806   0.0000   0.0000   0.0000   0.2548
  -0.400  -0.0444   0.01320   0.00709   0.0005  0.7118  0.6952  -0.4747   0.0000   0.0000   0.0000   0.2558
  -0.300  -0.0333   0.01322   0.00708   0.0004  0.7094  0.6966  -0.4691   0.0000   0.0000   0.0000   0.2573
  -0.200  -0.0221   0.01327   0.00711   0.0003  0.7069  0.6979  -0.4637   0.0000   0.0000   0.0000   0.2594
  -0.100  -0.0110   0.01336   0.00718   0.0002  0.7040  0.6991  -0.4591   0.0000   0.0000   0.0000   0.2625
   0.000   0.0000   0.01352   0.00733   0.0000  0.7004  0.7004  -0.4547   0.0000   0.0000   0.0000   0.1362
   0.100   0.0110   0.01336   0.00718  -0.0002  0.6991  0.7040  -0.4591   0.0000   0.0000   0.0000   0.2625
   0.200   0.0221   0.01327   0.00711  -0.0003  0.6979  0.7069  -0.4637   0.0000   0.0000   0.0000   0.2594
   0.300   0.0333   0.01322   0.00708  -0.0004  0.6966  0.7094  -0.4691   0.0000   0.0000   0.0000   0.2573
   0.400   0.0444   0.01320   0.00709  -0.0005  0.6952  0.7118  -0.4747   0.0000   0.0000   0.0000   0.2558
   0.500   0.0556   0.01320   0.00711  -0.0005  0.6936  0.7140  -0.4806   0.0000   0.0000   0.0000   0.2548
   0.600   0.0667   0.01321   0.00714  -0.0006  0.6920  0.7161  -0.4871   0.0000   0.0000   0.0000   0.2540
   0.700   0.0778   0.01323   0.00718  -0.0006  0.6903  0.7183  -0.4937   0.0000   0.0000   0.0000   0.2534
   0.800   0.0889   0.01325   0.00722  -0.0007  0.6885  0.7204  -0.5002   0.0000   0.0000   0.0000   0.2530
   0.900   0.1000   0.01327   0.00726  -0.0007  0.6865  0.7227  -0.5068   0.0000   0.0000   0.0000   0.2525
   1.000   0.1111   0.01328   0.00728  -0.0008  0.6844  0.7249  -0.5135   0.0000   0.0000   0.0000   0.2520
   1.100   0.1222   0.01329   0.00730  -0.0008  0.6821  0.7273  -0.5202   0.0000   0.0000   0.0000   0.2515
   1.200   0.1333   0.01330   0.00731  -0.0008  0.6799  0.7296  -0.5269   0.0000   0.0000   0.0000   0.2511
   1.300   0.1444   0.01330   0.00732  -0.0008  0.6777  0.7320  -0.5336   0.0000   0.0000   0.0000   0.2508
   1.400   0.1556   0.01332   0.00735  -0.0009  0.6758  0.7344  -0.5403   0.0000   0.0000   0.0000   0.2507
   1.500   0.1668   0.01333   0.00736  -0.0009  0.6738  0.7368  -0.5470   0.0000   0.0000   0.0000   0.2506
   1.600   0.1780   0.01334   0.00737  -0.0010  0.6718  0.7392  -0.5538   0.0000   0.0000   0.0000   0.2504
   1.700   0.1892   0.01334   0.00737  -0.0010  0.6697  0.7415  -0.5607   0.0000   0.0000   0.0000   0.2502
   1.800   0.2004   0.01335   0.00737  -0.0010  0.6676  0.7437  -0.5676   0.0000   0.0000   0.0000   0.2500
   1.900   0.2116   0.01335   0.00737  -0.0010  0.6655  0.7457  -0.5757   0.0000   0.0000   0.0000   0.2498
   2.000   0.2228   0.01337   0.00738  -0.0011  0.6634  0.7475  -0.6003   0.0000   0.0000   0.0000   0.2497
   2.100   0.2340   0.01342   0.00741  -0.0011  0.6614  0.7490  -0.6265   0.0000   0.0000   0.0000   0.2497
   2.200   0.2452   0.01343   0.00743  -0.0012  0.6594  0.7514  -0.6527   0.0000   0.0000   0.0000   0.2498
   2.300   0.2559   0.01341   0.00743  -0.0012  0.6574  0.7554  -0.6819   0.0000   0.0000   0.0000   0.2496
   2.400   0.2665   0.01349   0.00753  -0.0012  0.6551  0.7586  -0.7160   0.0000   0.0000   0.0000   0.2493
   2.500   0.2769   0.01367   0.00774  -0.0012  0.6524  0.7616  -0.7518   0.0000   0.0000   0.0000   0.2490
   2.600   0.2869   0.01391   0.00803  -0.0011  0.6498  0.7643  -0.7966   0.0000   0.0000   0.0000   0.2487
   2.700   0.2977   0.01392   0.00808  -0.0011  0.6488  0.7670  -0.8443   0.0000   0.0000   0.0000   0.2483
   2.800   0.3085   0.01393   0.00813  -0.0010  0.6476  0.7697  -0.8927   0.0000   0.0000   0.0000   0.2480
   2.900   0.3193   0.01393   0.00818  -0.0010  0.6461  0.7724  -0.9416   0.0000   0.0000   0.0000   0.2476
   3.000   0.3300   0.01392   0.00821  -0.0009  0.6442  0.7752  -0.9911   0.0000   0.0000   0.0000   0.2472
   3.100   0.3408   0.01389   0.00821  -0.0008  0.6417  0.7781  -1.0414   0.0000   0.0000   0.0000   0.2467
   3.200   0.3516   0.01384   0.00819  -0.0006  0.6386  0.7810  -1.0924   0.0000   0.0000   0.0000   0.2463
   3.300   0.3624   0.01378   0.00814  -0.0005  0.6351  0.7839  -1.1445   0.0000   0.0000   0.0000   0.2457
   3.400   0.3734   0.01368   0.00805  -0.0003  0.6310  0.7868  -1.1977   0.0000   0.0000   0.0000   0.2451
   3.500   0.3845   0.01354   0.00791  -0.0001  0.6264  0.7896  -1.2521   0.0000   0.0000   0.0000   0.2445
   3.600   0.3957   0.01338   0.00774   0.0001  0.6214  0.7923  -1.3077   0.0000   0.0000   0.0000   0.2438
   3.700   0.4070   0.01321   0.00753   0.0004  0.6161  0.7948  -1.3642   0.0000   0.0000   0.0000   0.2431
   3.800   0.4181   0.01309   0.00735   0.0007  0.6099  0.7970  -1.4211   0.0000   0.0000   0.0000   0.2423
   3.900   0.4289   0.01317   0.00737   0.0009  0.6020  0.7989  -1.4770   0.0000   0.0000   0.0000   0.2418
   4.000   0.4396   0.01307   0.00729   0.0011  0.5974  0.8018  -1.5328   0.0000   0.0000   0.0000   0.2415
   4.100   0.4499   0.01285   0.00712   0.0013  0.5929  0.8062  -1.5883   0.0000   0.0000   0.0000   0.2409
   4.200   0.4600   0.01268   0.00701   0.0017  0.5872  0.8098  -1.6441   0.0000   0.0000   0.0000   0.2401
   4.300   0.4700   0.01254   0.00689   0.0021  0.5803  0.8130  -1.7006   0.0000   0.0000   0.0000   0.2392
   4.400   0.4801   0.01241   0.00677   0.0026  0.5730  0.8161  -1.7578   0.0000   0.0000   0.0000   0.2382
   4.500   0.4902   0.01233   0.00667   0.0030  0.5661  0.8192  -1.8154   0.0000   0.0000   0.0000   0.2374
   4.600   0.5004   0.01231   0.00663   0.0034  0.5603  0.8223  -1.8732   0.0000   0.0000   0.0000   0.2367
   4.700   0.5106   0.01235   0.00664   0.0037  0.5541  0.8254  -1.9313   0.0000   0.0000   0.0000   0.2361
   4.800   0.5208   0.01238   0.00669   0.0040  0.5487  0.8287  -1.9895   0.0000   0.0000   0.0000   0.2358
   4.900   0.5310   0.01234   0.00688   0.0042  0.5445  0.8321  -2.0688   0.0000   0.0000   0.0000   0.2353
   5.000   0.5412   0.01232   0.00692   0.0045  0.5389  0.8355  -2.1328   0.0000   0.0000   0.0000   0.2350
   5.100   0.5513   0.01229   0.00694   0.0047  0.5318  0.8389  -2.1945   0.0000   0.0000   0.0000   0.2346
   5.200   0.5614   0.01227   0.00693   0.0050  0.5234  0.8422  -2.2557   0.0000   0.0000   0.0000   0.2341
   5.300   0.5713   0.01227   0.00689   0.0054  0.5135  0.8453  -2.3165   0.0000   0.0000   0.0000   0.2336
   5.400   0.5807   0.01231   0.00685   0.0058  0.5015  0.8480  -2.3760   0.0000   0.0000   0.0000   0.2329
   5.500   0.5906   0.01231   0.00691   0.0060  0.4911  0.8507  -2.4360   0.0000   0.0000   0.0000   0.2326
   5.600   0.5992   0.01223   0.00685   0.0065  0.4731  0.8561  -2.4927   0.0000   0.0000   0.0000   0.2318
   5.700   0.6057   0.01228   0.00677   0.0075  0.4492  0.8605  -2.5441   0.0000   0.0000   0.0000   0.2301
   5.800   0.6124   0.01236   0.00681   0.0084  0.4124  0.8646  -2.5909   0.0000   0.0000   0.0000   0.2287
   5.900   0.6131   0.01275   0.00685   0.0102  0.3544  0.8691  -2.6239   0.0000   0.0000   0.0000   0.2257
   6.000   0.6122   0.01326   0.00708   0.0121  0.2987  0.8739  -2.6516   0.0000   0.0000   0.0000   0.2224
   6.100   0.6107   0.01383   0.00738   0.0140  0.2481  0.8790  -2.6767   0.0000   0.0000   0.0000   0.2192
   6.200   0.6093   0.01436   0.00769   0.0158  0.2041  0.8842  -2.7015   0.0000   0.0000   0.0000   0.2160
   6.300   0.6087   0.01483   0.00798   0.0175  0.1680  0.8893  -2.7277   0.0000   0.0000   0.0000   0.2130
   6.400   0.6083   0.01527   0.00826   0.0192  0.1375  0.8942  -2.7530   0.0000   0.0000   0.0000   0.2101
   6.500   0.6066   0.01573   0.00855   0.0211  0.1140  0.8985  -2.7733   0.0000   0.0000   0.0000   0.2067
   6.600   0.6072   0.01603   0.00880   0.0227  0.0936  0.9046  -2.7957   0.0000   0.0000   0.0000   0.2040
   6.700   0.6065   0.01634   0.00903   0.0246  0.0847  0.9116  -2.8193   0.0000   0.0000   0.0000   0.2007
   6.800   0.6021   0.01678   0.00941   0.0271  0.0751  0.9189  -2.8248   0.0000   0.0000   0.0000   0.1961
   6.900   0.6055   0.01694   0.00960   0.0283  0.0720  0.9250  -2.8600   0.0000   0.0000   0.0000   0.1942
   7.000   0.6061   0.01713   0.00983   0.0301  0.0690  0.9319  -2.8860   0.0000   0.0000   0.0000   0.1912
   7.100   0.6063   0.01737   0.01008   0.0318  0.0661  0.9391  -2.9104   0.0000   0.0000   0.0000   0.1882
   7.200   0.6057   0.01763   0.01036   0.0336  0.0636  0.9461  -2.9326   0.0000   0.0000   0.0000   0.1851
   7.300   0.6079   0.01797   0.01068   0.0347  0.0607  0.9529  -2.9602   0.0000   0.0000   0.0000   0.1834
   7.400   0.6159   0.01854   0.01124   0.0344  0.0564  0.9592  -2.9945   0.0000   0.0000   0.0000   0.1846
   7.500   0.6212   0.01936   0.01213   0.0343  0.0522  0.9651  -3.0063   0.0000   0.0000   0.0000   0.1851
   7.600   0.6292   0.02011   0.01292   0.0340  0.0497  0.9701  -3.0262   0.0000   0.0000   0.0000   0.1862
   7.700   0.6427   0.02039   0.01325   0.0331  0.0488  0.9740  -3.0843   0.0000   0.0000   0.0000   0.1887
   7.800   0.6554   0.02074   0.01363   0.0322  0.0475  0.9781  -3.1349   0.0000   0.0000   0.0000   0.1909
   7.900   0.6676   0.02116   0.01409   0.0315  0.0459  0.9821  -3.1776   0.0000   0.0000   0.0000   0.1928
   8.000   0.6792   0.02163   0.01460   0.0309  0.0443  0.9863  -3.2143   0.0000   0.0000   0.0000   0.1945
   8.100   0.6908   0.02214   0.01515   0.0303  0.0428  0.9903  -3.2480   0.0000   0.0000   0.0000   0.1960
   8.200   0.7028   0.02267   0.01572   0.0297  0.0415  0.9938  -3.2812   0.0000   0.0000   0.0000   0.1975
   8.300   0.7150   0.02326   0.01641   0.0291  0.0400  0.9967  -3.3113   0.0000   0.0000   0.0000   0.1990
   8.400   0.7280   0.02389   0.01708   0.0285  0.0388  0.9990  -3.3413   0.0000   0.0000   0.0000   0.2005
   8.500   0.7264   0.02409   0.01730   0.0302  0.0384  1.0000  -3.3510   0.0000   0.0000   0.0000   0.1980
   8.600   0.7182   0.02412   0.01733   0.0330  0.0383  1.0000  -3.3498   0.0000   0.0000   0.0000   0.1935
   8.700   0.7177   0.02437   0.01759   0.0346  0.0380  1.0000  -3.3617   0.0000   0.0000   0.0000   0.1910
   8.800   0.7209   0.02473   0.01797   0.0357  0.0376  1.0000  -3.3799   0.0000   0.0000   0.0000   0.1896
   8.900   0.7261   0.02515   0.01841   0.0365  0.0373  1.0000  -3.4018   0.0000   0.0000   0.0000   0.1888
   9.000   0.7326   0.02562   0.01891   0.0371  0.0369  1.0000  -3.4257   0.0000   0.0000   0.0000   0.1883
   9.100   0.7399   0.02613   0.01945   0.0376  0.0366  1.0000  -3.4508   0.0000   0.0000   0.0000   0.1881
   9.200   0.7478   0.02668   0.02005   0.0379  0.0364  1.0000  -3.4764   0.0000   0.0000   0.0000   0.1880
   9.300   0.7560   0.02727   0.02068   0.0383  0.0362  1.0000  -3.5020   0.0000   0.0000   0.0000   0.1881
   9.400   0.7644   0.02790   0.02137   0.0386  0.0361  1.0000  -3.5271   0.0000   0.0000   0.0000   0.1882
   9.500   0.7727   0.02857   0.02210   0.0389  0.0360  1.0000  -3.5512   0.0000   0.0000   0.0000   0.1883
   9.600   0.7807   0.02928   0.02288   0.0392  0.0359  1.0000  -3.5738   0.0000   0.0000   0.0000   0.1883
   9.700   0.7883   0.03003   0.02369   0.0395  0.0359  1.0000  -3.5943   0.0000   0.0000   0.0000   0.1883
   9.800   0.7952   0.03081   0.02455   0.0399  0.0359  1.0000  -3.6126   0.0000   0.0000   0.0000   0.1881
   9.900   0.8014   0.03163   0.02544   0.0403  0.0359  1.0000  -3.6283   0.0000   0.0000   0.0000   0.1879
  10.000   0.8066   0.03247   0.02636   0.0409  0.0360  1.0000  -3.6413   0.0000   0.0000   0.0000   0.1874
  10.100   0.8109   0.03333   0.02730   0.0415  0.0361  1.0000  -3.6518   0.0000   0.0000   0.0000   0.1868
  10.200   0.8144   0.03421   0.02826   0.0422  0.0362  1.0000  -3.6596   0.0000   0.0000   0.0000   0.1861
  10.300   0.8168   0.03509   0.02923   0.0430  0.0363  1.0000  -3.6655   0.0000   0.0000   0.0000   0.1851
  10.400   0.8184   0.03595   0.03015   0.0439  0.0364  1.0000  -3.6721   0.0000   0.0000   0.0000   0.1841
  10.500   0.8193   0.03677   0.03105   0.0448  0.0364  1.0000  -3.6793   0.0000   0.0000   0.0000   0.1829
  10.600   0.8198   0.03757   0.03192   0.0457  0.0364  1.0000  -3.6874   0.0000   0.0000   0.0000   0.1817
  10.700   0.8198   0.03836   0.03276   0.0466  0.0363  1.0000  -3.6958   0.0000   0.0000   0.0000   0.1804
  10.800   0.8191   0.03913   0.03360   0.0475  0.0362  1.0000  -3.7038   0.0000   0.0000   0.0000   0.1791
  10.900   0.8180   0.03989   0.03442   0.0485  0.0361  1.0000  -3.7117   0.0000   0.0000   0.0000   0.1777
  11.000   0.8166   0.04065   0.03522   0.0494  0.0359  1.0000  -3.7200   0.0000   0.0000   0.0000   0.1763
  11.100   0.8151   0.04140   0.03603   0.0503  0.0358  1.0000  -3.7284   0.0000   0.0000   0.0000   0.1749
  11.200   0.8132   0.04216   0.03685   0.0512  0.0356  1.0000  -3.7366   0.0000   0.0000   0.0000   0.1736
  11.300   0.8108   0.04294   0.03768   0.0521  0.0354  1.0000  -3.7436   0.0000   0.0000   0.0000   0.1721
  11.400   0.8081   0.04373   0.03852   0.0529  0.0353  1.0000  -3.7500   0.0000   0.0000   0.0000   0.1707
  11.500   0.8053   0.04453   0.03937   0.0537  0.0351  1.0000  -3.7564   0.0000   0.0000   0.0000   0.1693
  11.600   0.8024   0.04535   0.04024   0.0545  0.0349  1.0000  -3.7629   0.0000   0.0000   0.0000   0.1680
  11.700   0.7992   0.04619   0.04113   0.0552  0.0347  1.0000  -3.7682   0.0000   0.0000   0.0000   0.1666
  11.800   0.7954   0.04706   0.04205   0.0559  0.0345  1.0000  -3.7715   0.0000   0.0000   0.0000   0.1652
  11.900   0.7915   0.04796   0.04300   0.0565  0.0344  1.0000  -3.7745   0.0000   0.0000   0.0000   0.1639
  12.000   0.7877   0.04887   0.04396   0.0571  0.0342  1.0000  -3.7773   0.0000   0.0000   0.0000   0.1626
  12.100   0.7836   0.04982   0.04495   0.0576  0.0340  1.0000  -3.7791   0.0000   0.0000   0.0000   0.1614
  12.200   0.7787   0.05083   0.04601   0.0581  0.0339  1.0000  -3.7771   0.0000   0.0000   0.0000   0.1601
  12.300   0.7737   0.05188   0.04711   0.0585  0.0337  1.0000  -3.7740   0.0000   0.0000   0.0000   0.1589
  12.400   0.7688   0.05297   0.04825   0.0588  0.0336  1.0000  -3.7705   0.0000   0.0000   0.0000   0.1577
  12.500   0.7636   0.05411   0.04945   0.0591  0.0335  1.0000  -3.7655   0.0000   0.0000   0.0000   0.1566
  12.600   0.7573   0.05537   0.05075   0.0594  0.0334  1.0000  -3.7541   0.0000   0.0000   0.0000   0.1554
  12.700   0.7507   0.05669   0.05213   0.0595  0.0334  1.0000  -3.7406   0.0000   0.0000   0.0000   0.1543
  12.800   0.7442   0.05806   0.05356   0.0596  0.0333  1.0000  -3.7260   0.0000   0.0000   0.0000   0.1533
  12.900   0.7370   0.05955   0.05510   0.0595  0.0333  1.0000  -3.7062   0.0000   0.0000   0.0000   0.1523
  13.000   0.7280   0.06124   0.05685   0.0594  0.0333  1.0000  -3.6761   0.0000   0.0000   0.0000   0.1513
  13.100   0.7189   0.06301   0.05869   0.0591  0.0334  1.0000  -3.6430   0.0000   0.0000   0.0000   0.1504
  13.200   0.7090   0.06497   0.06071   0.0587  0.0335  1.0000  -3.6029   0.0000   0.0000   0.0000   0.1495
  13.300   0.6956   0.06739   0.06321   0.0581  0.0338  1.0000  -3.5409   0.0000   0.0000   0.0000   0.1486
  13.400   0.6779   0.07052   0.06644   0.0570  0.0344  1.0000  -3.4467   0.0000   0.0000   0.0000   0.1477
  13.500   0.6374   0.07716   0.07326   0.0540  0.0362  1.0000  -3.1959   0.0000   0.0000   0.0000   0.1466
  13.600   0.5886   0.08655   0.08281   0.0489  0.0390  1.0000  -2.8689   0.0000   0.0000   0.0000   0.1478
  13.700   0.5477   0.09712   0.09344   0.0428  0.0417  1.0000  -2.5367   0.0000   0.0000   0.0000   0.1525
  13.800   0.5290   0.10400   0.10032   0.0393  0.0433  1.0000  -2.3427   0.0000   0.0000   0.0000   0.1564
  13.900   0.5203   0.10796   0.10427   0.0373  0.0441  1.0000  -2.2475   0.0000   0.0000   0.0000   0.1588
  14.000   0.5142   0.11126   0.10756   0.0358  0.0448  1.0000  -2.1755   0.0000   0.0000   0.0000   0.1608
  14.100   0.5094   0.11423   0.11052   0.0345  0.0454  1.0000  -2.1154   0.0000   0.0000   0.0000   0.1627
  14.200   0.5054   0.11701   0.11329   0.0332  0.0460  1.0000  -2.0626   0.0000   0.0000   0.0000   0.1645
  14.300   0.5021   0.11970   0.11596   0.0321  0.0466  1.0000  -2.0139   0.0000   0.0000   0.0000   0.1662
  14.700   0.4929   0.13232   0.12856   0.0286  0.0500  1.0000  -1.8145   0.0000   0.0000   0.0000   0.1719
  14.800   0.4928   0.13432   0.13056   0.0277  0.0500  1.0000  -1.7919   0.0000   0.0000   0.0000   0.1737
  14.900   0.4929   0.13627   0.13250   0.0267  0.0499  1.0000  -1.7708   0.0000   0.0000   0.0000   0.1755
  15.000   0.4931   0.13816   0.13439   0.0259  0.0499  1.0000  -1.7511   0.0000   0.0000   0.0000   0.1772
  15.100   0.4936   0.14002   0.13623   0.0250  0.0499  1.0000  -1.7325   0.0000   0.0000   0.0000   0.1790
  15.200   0.4942   0.14183   0.13805   0.0241  0.0498  1.0000  -1.7151   0.0000   0.0000   0.0000   0.1806
  15.300   0.4949   0.14362   0.13983   0.0233  0.0498  1.0000  -1.6986   0.0000   0.0000   0.0000   0.1823
  15.400   0.4958   0.14539   0.14159   0.0225  0.0498  1.0000  -1.6830   0.0000   0.0000   0.0000   0.1839
  15.500   0.4968   0.14716   0.14335   0.0217  0.0498  1.0000  -1.6681   0.0000   0.0000   0.0000   0.1856
  15.600   0.4980   0.14892   0.14511   0.0209  0.0497  1.0000  -1.6540   0.0000   0.0000   0.0000   0.1871
  15.700   0.4993   0.15069   0.14688   0.0202  0.0497  1.0000  -1.6404   0.0000   0.0000   0.0000   0.1887
  15.800   0.5007   0.15244   0.14863   0.0194  0.0497  1.0000  -1.6273   0.0000   0.0000   0.0000   0.1902
  15.900   0.5021   0.15417   0.15035   0.0187  0.0497  1.0000  -1.6148   0.0000   0.0000   0.0000   0.1918
  16.000   0.5036   0.15587   0.15204   0.0179  0.0497  1.0000  -1.6028   0.0000   0.0000   0.0000   0.1933
  16.100   0.5052   0.15755   0.15372   0.0172  0.0497  1.0000  -1.5912   0.0000   0.0000   0.0000   0.1948
  16.200   0.5068   0.15921   0.15537   0.0164  0.0497  1.0000  -1.5800   0.0000   0.0000   0.0000   0.1963
  16.300   0.5084   0.16085   0.15701   0.0157  0.0497  1.0000  -1.5692   0.0000   0.0000   0.0000   0.1977
  16.400   0.5101   0.16248   0.15864   0.0149  0.0496  1.0000  -1.5588   0.0000   0.0000   0.0000   0.1992
  16.500   0.5118   0.16410   0.16025   0.0142  0.0496  1.0000  -1.5487   0.0000   0.0000   0.0000   0.2006
  16.600   0.5136   0.16570   0.16185   0.0135  0.0496  1.0000  -1.5389   0.0000   0.0000   0.0000   0.2020
  16.700   0.5154   0.16728   0.16343   0.0128  0.0496  1.0000  -1.5425   0.0000   0.0000   0.0000   0.2034
  16.800   0.5171   0.16886   0.16500   0.0120  0.0495  1.0000  -1.5483   0.0000   0.0000   0.0000   0.2048
  16.900   0.5190   0.17042   0.16656   0.0113  0.0495  1.0000  -1.5538   0.0000   0.0000   0.0000   0.2062
  17.000   0.5208   0.17196   0.16810   0.0106  0.0495  1.0000  -1.5588   0.0000   0.0000   0.0000   0.2075
  17.100   0.5226   0.17348   0.16962   0.0099  0.0494  1.0000  -1.5633   0.0000   0.0000   0.0000   0.2089
  17.200   0.5244   0.17499   0.17112   0.0092  0.0494  1.0000  -1.5669   0.0000   0.0000   0.0000   0.2102
  17.300   0.5262   0.17646   0.17259   0.0085  0.0493  1.0000  -1.5693   0.0000   0.0000   0.0000   0.2115
  17.400   0.5280   0.17790   0.17403   0.0077  0.0492  1.0000  -1.5700   0.0000   0.0000   0.0000   0.2128
  17.500   0.5297   0.17929   0.17541   0.0070  0.0491  1.0000  -1.5684   0.0000   0.0000   0.0000   0.2141
  17.600   0.5313   0.18056   0.17667   0.0063  0.0489  1.0000  -1.5641   0.0000   0.0000   0.0000   0.2154
  17.700   0.5328   0.18151   0.17762   0.0056  0.0485  1.0000  -1.5569   0.0000   0.0000   0.0000   0.2166
  17.800   0.5282   0.18058   0.17667   0.0041  0.0452  1.0000  -1.5131   0.0000   0.0000   0.0000   0.2191
  17.900   0.5283   0.18136   0.17744   0.0031  0.0403  1.0000  -1.5068   0.0000   0.0000   0.0000   0.2209
  18.000   0.5309   0.18229   0.17837   0.0025  0.0373  1.0000  -1.5264   0.0000   0.0000   0.0000   0.2219
  18.100   0.5344   0.18310   0.17918   0.0020  0.0349  1.0000  -1.5570   0.0000   0.0000   0.0000   0.2226
  18.200   0.5386   0.18378   0.17986   0.0016  0.0330  1.0000  -1.5977   0.0000   0.0000   0.0000   0.2232
  18.300   0.5436   0.18433   0.18041   0.0014  0.0315  1.0000  -1.6494   0.0000   0.0000   0.0000   0.2235
  18.400   0.5496   0.18475   0.18083   0.0012  0.0303  1.0000  -1.7147   0.0000   0.0000   0.0000   0.2236
  18.500   0.5571   0.18501   0.18110   0.0013  0.0292  1.0000  -1.7991   0.0000   0.0000   0.0000   0.2233
  18.600   0.5645   0.18533   0.18142   0.0014  0.0282  1.0000  -1.8854   0.0000   0.0000   0.0000   0.2231
  18.700   0.5683   0.18634   0.18244   0.0010  0.0274  1.0000  -1.9252   0.0000   0.0000   0.0000   0.2235
  18.800   0.5701   0.18830   0.18439   0.0004  0.0267  1.0000  -1.9237   0.0000   0.0000   0.0000   0.2244
  18.900   0.5679   0.19197   0.18806  -0.0006  0.0259  1.0000  -1.8438   0.0000   0.0000   0.0000   0.2262
  19.000   0.5563   0.20045   0.19648  -0.0028  0.0250  1.0000  -1.5800   0.0000   0.0000   0.0000   0.2304
  19.100   0.5583   0.20220   0.19823  -0.0035  0.0250  1.0000  -1.5665   0.0000   0.0000   0.0000   0.2315
  19.200   0.5604   0.20393   0.19995  -0.0042  0.0250  1.0000  -1.5545   0.0000   0.0000   0.0000   0.2326
  19.300   0.5625   0.20564   0.20166  -0.0048  0.0250  1.0000  -1.5437   0.0000   0.0000   0.0000   0.2336
  19.400   0.5647   0.20732   0.20335  -0.0055  0.0250  1.0000  -1.5339   0.0000   0.0000   0.0000   0.2346
  19.500   0.5668   0.20900   0.20502  -0.0061  0.0250  1.0000  -1.5249   0.0000   0.0000   0.0000   0.2356
  19.600   0.5691   0.21066   0.20667  -0.0068  0.0250  1.0000  -1.5179   0.0000   0.0000   0.0000   0.2366
  19.700   0.5713   0.21230   0.20832  -0.0074  0.0249  1.0000  -1.5123   0.0000   0.0000   0.0000   0.2376
  19.800   0.5736   0.21393   0.20994  -0.0080  0.0249  1.0000  -1.5070   0.0000   0.0000   0.0000   0.2385
  19.900   0.5759   0.21555   0.21156  -0.0087  0.0249  1.0000  -1.5020   0.0000   0.0000   0.0000   0.2395
  20.000   0.5781   0.21715   0.21316  -0.0093  0.0249  1.0000  -1.4972   0.0000   0.0000   0.0000   0.2404


