xflr5 v6.61

 Calculated polar for: SD6060-104-88

 1 1 Reynolds number fixed          Mach number fixed         

 xtrf =   0.150 (top)        0.150 (bottom)
 Mach =   0.061     Re =     0.225 e 6     Ncrit =   9.000

  alpha     CL        CD       CDp       Cm    Top Xtr Bot Xtr   Cpmin    Chinge    XCp    
 ------- -------- --------- --------- -------- ------- ------- -------- --------- ---------
 -10.000  -0.4595   0.11253   0.10637  -0.0117  0.1500  0.0368  -1.5685   0.0000   0.0000   0.0000   0.2175
  -9.900  -0.4579   0.11109   0.10493  -0.0123  0.1500  0.0372  -1.5665   0.0000   0.0000   0.0000   0.2162
  -9.800  -0.4563   0.10964   0.10348  -0.0129  0.1500  0.0376  -1.5658   0.0000   0.0000   0.0000   0.2148
  -9.700  -0.4548   0.10817   0.10202  -0.0135  0.1500  0.0380  -1.5664   0.0000   0.0000   0.0000   0.2134
  -9.600  -0.4535   0.10670   0.10054  -0.0142  0.1500  0.0384  -1.5683   0.0000   0.0000   0.0000   0.2119
  -9.500  -0.4522   0.10521   0.09906  -0.0149  0.1500  0.0388  -1.5713   0.0000   0.0000   0.0000   0.2103
  -9.400  -0.4511   0.10371   0.09757  -0.0156  0.1500  0.0392  -1.5754   0.0000   0.0000   0.0000   0.2087
  -9.300  -0.4501   0.10221   0.09606  -0.0164  0.1500  0.0397  -1.5807   0.0000   0.0000   0.0000   0.2070
  -9.200  -0.4492   0.10069   0.09455  -0.0172  0.1500  0.0401  -1.5870   0.0000   0.0000   0.0000   0.2053
  -9.100  -0.4484   0.09916   0.09303  -0.0180  0.1500  0.0406  -1.5943   0.0000   0.0000   0.0000   0.2036
  -9.000  -0.4478   0.09762   0.09149  -0.0188  0.1500  0.0410  -1.6028   0.0000   0.0000   0.0000   0.2017
  -8.900  -0.4473   0.09607   0.08995  -0.0196  0.1500  0.0415  -1.6124   0.0000   0.0000   0.0000   0.1999
  -8.800  -0.4470   0.09452   0.08840  -0.0205  0.1500  0.0420  -1.6234   0.0000   0.0000   0.0000   0.1979
  -8.700  -0.4468   0.09294   0.08683  -0.0215  0.1500  0.0425  -1.6356   0.0000   0.0000   0.0000   0.1959
  -8.600  -0.4467   0.09132   0.08522  -0.0225  0.1500  0.0430  -1.6494   0.0000   0.0000   0.0000   0.1937
  -8.500  -0.4467   0.08968   0.08359  -0.0236  0.1500  0.0436  -1.6649   0.0000   0.0000   0.0000   0.1913
  -8.300  -0.4472   0.08638   0.08018  -0.0265  0.1500  0.0459  -1.7084   0.0000   0.0000   0.0000   0.1851
  -8.000  -0.4501   0.08081   0.07478  -0.0309  0.1500  0.0460  -1.7753   0.0000   0.0000   0.0000   0.1761
  -7.900  -0.4522   0.07875   0.07274  -0.0329  0.1500  0.0461  -1.8057   0.0000   0.0000   0.0000   0.1721
  -7.800  -0.4555   0.07659   0.07060  -0.0353  0.1500  0.0462  -1.8415   0.0000   0.0000   0.0000   0.1675
  -7.700  -0.4592   0.07475   0.06875  -0.0369  0.1500  0.0464  -1.8746   0.0000   0.0000   0.0000   0.1648
  -7.600  -0.4628   0.07314   0.06712  -0.0380  0.1500  0.0467  -1.9054   0.0000   0.0000   0.0000   0.1632
  -7.500  -0.4641   0.07139   0.06533  -0.0394  0.1500  0.0473  -1.9366   0.0000   0.0000   0.0000   0.1605
  -7.400  -0.4643   0.06983   0.06372  -0.0405  0.1500  0.0479  -1.9647   0.0000   0.0000   0.0000   0.1581
  -7.300  -0.4616   0.06882   0.06264  -0.0414  0.1500  0.0489  -1.9784   0.0000   0.0000   0.0000   0.1558
  -7.200  -0.4574   0.06854   0.06226  -0.0419  0.1500  0.0500  -1.9792   0.0000   0.0000   0.0000   0.1539
  -7.100  -0.4545   0.06871   0.06216  -0.0421  0.1500  0.0507  -1.9789   0.0000   0.0000   0.0000   0.1529
  -7.000  -0.4528   0.06741   0.06079  -0.0423  0.1500  0.0507  -1.9849   0.0000   0.0000   0.0000   0.1521
  -6.900  -0.4508   0.06608   0.05938  -0.0425  0.1500  0.0508  -1.9894   0.0000   0.0000   0.0000   0.1513
  -6.800  -0.4484   0.06471   0.05793  -0.0426  0.1500  0.0509  -1.9925   0.0000   0.0000   0.0000   0.1506
  -6.700  -0.4456   0.06332   0.05646  -0.0427  0.1500  0.0509  -1.9943   0.0000   0.0000   0.0000   0.1499
  -6.600  -0.4424   0.06190   0.05496  -0.0427  0.1500  0.0510  -1.9946   0.0000   0.0000   0.0000   0.1491
  -6.500  -0.4388   0.06048   0.05345  -0.0427  0.1500  0.0510  -1.9936   0.0000   0.0000   0.0000   0.1484
  -6.300  -0.4561   0.04962   0.04247  -0.0444  0.1500  0.0550  -2.1592   0.0000   0.0000   0.0000   0.1485
  -6.200  -0.4500   0.04822   0.04107  -0.0443  0.1500  0.0558  -2.1212   0.0000   0.0000   0.0000   0.1474
  -6.100  -0.4438   0.04695   0.03977  -0.0442  0.1500  0.0566  -2.0844   0.0000   0.0000   0.0000   0.1464
  -6.000  -0.4376   0.04574   0.03853  -0.0440  0.1500  0.0574  -2.0496   0.0000   0.0000   0.0000   0.1453
  -5.900  -0.4313   0.04456   0.03731  -0.0438  0.1500  0.0583  -2.0169   0.0000   0.0000   0.0000   0.1443
  -5.800  -0.4248   0.04341   0.03609  -0.0437  0.1500  0.0593  -1.9865   0.0000   0.0000   0.0000   0.1432
  -5.700  -0.4182   0.04226   0.03488  -0.0435  0.1500  0.0603  -1.9585   0.0000   0.0000   0.0000   0.1421
  -5.600  -0.4112   0.04112   0.03365  -0.0432  0.1500  0.0615  -1.9329   0.0000   0.0000   0.0000   0.1409
  -5.500  -0.4041   0.03998   0.03242  -0.0430  0.1500  0.0626  -1.9096   0.0000   0.0000   0.0000   0.1396
  -5.400  -0.3967   0.03884   0.03118  -0.0427  0.1500  0.0638  -1.8884   0.0000   0.0000   0.0000   0.1383
  -5.300  -0.3890   0.03770   0.02993  -0.0424  0.1500  0.0649  -1.8691   0.0000   0.0000   0.0000   0.1369
  -5.200  -0.3811   0.03655   0.02867  -0.0421  0.1500  0.0658  -1.8515   0.0000   0.0000   0.0000   0.1355
  -5.100  -0.3731   0.03539   0.02738  -0.0418  0.1500  0.0664  -1.8357   0.0000   0.0000   0.0000   0.1340
  -5.000  -0.3648   0.03417   0.02602  -0.0414  0.1500  0.0666  -1.8226   0.0000   0.0000   0.0000   0.1325
  -4.900  -0.3566   0.03282   0.02453  -0.0410  0.1500  0.0661  -1.8156   0.0000   0.0000   0.0000   0.1310
  -4.800  -0.3484   0.03080   0.02227  -0.0404  0.1500  0.0619  -1.8518   0.0000   0.0000   0.0000   0.1300
  -4.700  -0.3344   0.02449   0.01484  -0.0370  0.1500  0.0231  -2.4117   0.0000   0.0000   0.0000   0.1346
  -4.600  -0.3243   0.02288   0.01297  -0.0363  0.1500  0.0209  -2.4698   0.0000   0.0000   0.0000   0.1334
  -4.500  -0.3136   0.02156   0.01141  -0.0356  0.1500  0.0191  -2.5135   0.0000   0.0000   0.0000   0.1317
  -4.400  -0.3027   0.02078   0.01046  -0.0351  0.1500  0.0179  -2.5079   0.0000   0.0000   0.0000   0.1293
  -4.300  -0.2919   0.02031   0.00990  -0.0348  0.1500  0.0171  -2.4617   0.0000   0.0000   0.0000   0.1261
  -4.200  -0.2812   0.01994   0.00948  -0.0345  0.1500  0.0166  -2.4009   0.0000   0.0000   0.0000   0.1225
  -4.100  -0.2705   0.01960   0.00909  -0.0342  0.1500  0.0162  -2.3358   0.0000   0.0000   0.0000   0.1187
  -4.000  -0.2600   0.01926   0.00870  -0.0340  0.1500  0.0159  -2.2707   0.0000   0.0000   0.0000   0.1145
  -3.900  -0.2495   0.01889   0.00829  -0.0337  0.1500  0.0156  -2.2076   0.0000   0.0000   0.0000   0.1100
  -3.800  -0.2393   0.01849   0.00785  -0.0334  0.1500  0.0154  -2.1477   0.0000   0.0000   0.0000   0.1054
  -3.700  -0.2292   0.01806   0.00738  -0.0331  0.1500  0.0153  -2.0914   0.0000   0.0000   0.0000   0.1005
  -3.600  -0.2193   0.01761   0.00689  -0.0328  0.1500  0.0152  -2.0388   0.0000   0.0000   0.0000   0.0955
  -3.500  -0.2096   0.01716   0.00638  -0.0324  0.1500  0.0151  -1.9890   0.0000   0.0000   0.0000   0.0903
  -3.400  -0.2001   0.01670   0.00587  -0.0321  0.1500  0.0152  -1.9411   0.0000   0.0000   0.0000   0.0847
  -3.300  -0.1906   0.01628   0.00538  -0.0317  0.1500  0.0153  -1.8938   0.0000   0.0000   0.0000   0.0786
  -3.200  -0.1809   0.01590   0.00492  -0.0314  0.1500  0.0154  -1.8459   0.0000   0.0000   0.0000   0.0716
  -3.100  -0.1710   0.01557   0.00450  -0.0310  0.1500  0.0158  -1.7962   0.0000   0.0000   0.0000   0.0633
  -3.000  -0.1608   0.01530   0.00414  -0.0308  0.1500  0.0163  -1.7442   0.0000   0.0000   0.0000   0.0534
  -2.900  -0.1504   0.01509   0.00382  -0.0305  0.1500  0.0171  -1.6899   0.0000   0.0000   0.0000   0.0416
  -2.800  -0.1398   0.01491   0.00355  -0.0303  0.1500  0.0184  -1.6340   0.0000   0.0000   0.0000   0.0277
  -2.700  -0.1291   0.01476   0.00334  -0.0301  0.1500  0.0207  -1.5764   0.0000   0.0000   0.0000   0.0113
  -2.600  -0.1186   0.01460   0.00319  -0.0299  0.1500  0.0247  -1.5159   0.0000   0.0000   0.0000  -0.0081
  -2.400  -0.0994   0.01394   0.00288  -0.0295  0.1500  0.0994  -1.3907   0.0000   0.0000   0.0000  -0.0531
  -2.300  -0.0901   0.01361   0.00276  -0.0294  0.1500  0.1500  -1.3238   0.0000   0.0000   0.0000  -0.0824
  -2.200  -0.0790   0.01359   0.00269  -0.0293  0.1500  0.1500  -1.2496   0.0000   0.0000   0.0000  -0.1277
  -2.100  -0.0680   0.01358   0.00263  -0.0292  0.1500  0.1500  -1.1749   0.0000   0.0000   0.0000  -0.1877
  -2.000  -0.0570   0.01358   0.00259  -0.0292  0.1500  0.1500  -1.0996   0.0000   0.0000   0.0000  -0.2710
  -1.900  -0.0459   0.01357   0.00255  -0.0292  0.1500  0.1500  -1.0216   0.0000   0.0000   0.0000  -0.3942
  -1.800  -0.0349   0.01357   0.00251  -0.0291  0.1500  0.1500  -0.9230   0.0000   0.0000   0.0000  -0.5964
  -1.700  -0.0238   0.01357   0.00239  -0.0291  0.1500  0.1500  -0.8224   0.0000   0.0000   0.0000  -0.9862
  -1.600  -0.0129   0.01356   0.00235  -0.0290  0.1500  0.1500  -0.7684   0.0000   0.0000   0.0000  -2.0322
  -1.500  -0.0019   0.01356   0.00231  -0.0290  0.1500  0.1500  -0.7154   0.0000   0.0000   0.0000  -14.9043
  -1.400   0.0090   0.01355   0.00228  -0.0290  0.1500  0.1500  -0.6632   0.0000   0.0000   0.0000   3.5006
  -1.300   0.0199   0.01355   0.00225  -0.0290  0.1500  0.1500  -0.6120   0.0000   0.0000   0.0000   1.7150
  -1.200   0.0309   0.01355   0.00222  -0.0289  0.1500  0.1500  -0.5617   0.0000   0.0000   0.0000   1.1943
  -1.100   0.0418   0.01355   0.00219  -0.0289  0.1500  0.1500  -0.5123   0.0000   0.0000   0.0000   0.9461
  -1.000   0.0527   0.01355   0.00217  -0.0289  0.1500  0.1500  -0.4638   0.0000   0.0000   0.0000   0.8008
  -0.900   0.0637   0.01355   0.00214  -0.0289  0.1500  0.1500  -0.4206   0.0000   0.0000   0.0000   0.7054
  -0.800   0.0746   0.01355   0.00212  -0.0289  0.1500  0.1500  -0.3974   0.0000   0.0000   0.0000   0.6380
  -0.700   0.0856   0.01356   0.00211  -0.0288  0.1500  0.1500  -0.4028   0.0000   0.0000   0.0000   0.5879
  -0.600   0.0965   0.01356   0.00209  -0.0288  0.1500  0.1500  -0.4096   0.0000   0.0000   0.0000   0.5491
  -0.500   0.1074   0.01357   0.00208  -0.0288  0.1500  0.1500  -0.4164   0.0000   0.0000   0.0000   0.5182
  -0.400   0.1183   0.01357   0.00207  -0.0288  0.1500  0.1500  -0.4234   0.0000   0.0000   0.0000   0.4931
  -0.300   0.1292   0.01358   0.00206  -0.0288  0.1500  0.1500  -0.4336   0.0000   0.0000   0.0000   0.4722
  -0.200   0.1401   0.01358   0.00205  -0.0288  0.1500  0.1500  -0.4437   0.0000   0.0000   0.0000   0.4545
  -0.100   0.1511   0.01359   0.00204  -0.0288  0.1500  0.1500  -0.4539   0.0000   0.0000   0.0000   0.4395
   0.000   0.1620   0.01360   0.00204  -0.0287  0.1500  0.1500  -0.4641   0.0000   0.0000   0.0000   0.4264
   0.100   0.1729   0.01361   0.00204  -0.0287  0.1500  0.1500  -0.4744   0.0000   0.0000   0.0000   0.4150
   0.200   0.1837   0.01362   0.00204  -0.0287  0.1500  0.1500  -0.4846   0.0000   0.0000   0.0000   0.4050
   0.300   0.1946   0.01363   0.00204  -0.0287  0.1500  0.1500  -0.4949   0.0000   0.0000   0.0000   0.3960
   0.400   0.2055   0.01365   0.00205  -0.0287  0.1500  0.1500  -0.5052   0.0000   0.0000   0.0000   0.3881
   0.500   0.2164   0.01366   0.00206  -0.0287  0.1500  0.1500  -0.5156   0.0000   0.0000   0.0000   0.3809
   0.600   0.2273   0.01367   0.00207  -0.0287  0.1500  0.1500  -0.5259   0.0000   0.0000   0.0000   0.3744
   0.700   0.2381   0.01369   0.00208  -0.0286  0.1500  0.1500  -0.5363   0.0000   0.0000   0.0000   0.3685
   0.800   0.2490   0.01371   0.00209  -0.0286  0.1500  0.1500  -0.5468   0.0000   0.0000   0.0000   0.3631
   0.900   0.2598   0.01372   0.00211  -0.0286  0.1500  0.1500  -0.5572   0.0000   0.0000   0.0000   0.3582
   1.000   0.2707   0.01374   0.00212  -0.0286  0.1500  0.1500  -0.5677   0.0000   0.0000   0.0000   0.3537
   1.100   0.2815   0.01376   0.00214  -0.0286  0.1500  0.1500  -0.5782   0.0000   0.0000   0.0000   0.3495
   1.200   0.2924   0.01378   0.00216  -0.0286  0.1500  0.1500  -0.5897   0.0000   0.0000   0.0000   0.3456
   1.300   0.3032   0.01380   0.00218  -0.0286  0.1500  0.1500  -0.6019   0.0000   0.0000   0.0000   0.3420
   1.400   0.3141   0.01382   0.00221  -0.0286  0.1500  0.1500  -0.6141   0.0000   0.0000   0.0000   0.3386
   1.500   0.3249   0.01384   0.00223  -0.0285  0.1500  0.1500  -0.6263   0.0000   0.0000   0.0000   0.3355
   1.600   0.3357   0.01386   0.00226  -0.0285  0.1500  0.1500  -0.6386   0.0000   0.0000   0.0000   0.3326
   1.700   0.3465   0.01388   0.00228  -0.0285  0.1500  0.1500  -0.6509   0.0000   0.0000   0.0000   0.3298
   1.800   0.3573   0.01390   0.00233  -0.0285  0.1500  0.1500  -0.6649   0.0000   0.0000   0.0000   0.3272
   1.900   0.3681   0.01393   0.00236  -0.0285  0.1500  0.1500  -0.6792   0.0000   0.0000   0.0000   0.3248
   2.000   0.3789   0.01395   0.00239  -0.0285  0.1500  0.1500  -0.6936   0.0000   0.0000   0.0000   0.3225
   2.100   0.3897   0.01398   0.00242  -0.0284  0.1500  0.1500  -0.7080   0.0000   0.0000   0.0000   0.3203
   2.200   0.4005   0.01401   0.00245  -0.0284  0.1500  0.1500  -0.7225   0.0000   0.0000   0.0000   0.3182
   2.300   0.4112   0.01403   0.00249  -0.0284  0.1500  0.1500  -0.7380   0.0000   0.0000   0.0000   0.3162
   2.400   0.4220   0.01406   0.00253  -0.0284  0.1500  0.1500  -0.7550   0.0000   0.0000   0.0000   0.3144
   2.500   0.4327   0.01409   0.00257  -0.0284  0.1500  0.1500  -0.7721   0.0000   0.0000   0.0000   0.3126
   2.600   0.4435   0.01413   0.00262  -0.0284  0.1500  0.1500  -0.7892   0.0000   0.0000   0.0000   0.3109
   2.700   0.4542   0.01416   0.00266  -0.0283  0.1500  0.1500  -0.8064   0.0000   0.0000   0.0000   0.3093
   2.800   0.4649   0.01419   0.00271  -0.0283  0.1500  0.1500  -0.8237   0.0000   0.0000   0.0000   0.3077
   2.900   0.4756   0.01422   0.00276  -0.0283  0.1500  0.1500  -0.8411   0.0000   0.0000   0.0000   0.3062
   3.000   0.4863   0.01426   0.00281  -0.0283  0.1500  0.1500  -0.8585   0.0000   0.0000   0.0000   0.3048
   3.100   0.4970   0.01430   0.00286  -0.0282  0.1500  0.1500  -0.8766   0.0000   0.0000   0.0000   0.3034
   3.200   0.5076   0.01433   0.00292  -0.0282  0.1500  0.1500  -0.8978   0.0000   0.0000   0.0000   0.3021
   3.300   0.5183   0.01437   0.00298  -0.0282  0.1500  0.1500  -0.9191   0.0000   0.0000   0.0000   0.3008
   3.400   0.5290   0.01441   0.00304  -0.0281  0.1500  0.1500  -0.9405   0.0000   0.0000   0.0000   0.2996
   3.500   0.5396   0.01445   0.00310  -0.0281  0.1500  0.1500  -0.9647   0.0000   0.0000   0.0000   0.2984
   3.600   0.5503   0.01449   0.00316  -0.0281  0.1500  0.1500  -0.9908   0.0000   0.0000   0.0000   0.2973
   3.700   0.5609   0.01453   0.00323  -0.0280  0.1500  0.1500  -1.0171   0.0000   0.0000   0.0000   0.2962
   3.800   0.5715   0.01457   0.00330  -0.0280  0.1500  0.1500  -1.0435   0.0000   0.0000   0.0000   0.2951
   3.900   0.5821   0.01461   0.00337  -0.0280  0.1500  0.1500  -1.0700   0.0000   0.0000   0.0000   0.2941
   4.000   0.5927   0.01466   0.00344  -0.0279  0.1500  0.1500  -1.0966   0.0000   0.0000   0.0000   0.2931
   4.100   0.6033   0.01470   0.00351  -0.0279  0.1500  0.1500  -1.1234   0.0000   0.0000   0.0000   0.2921
   4.200   0.6139   0.01475   0.00359  -0.0278  0.1500  0.1500  -1.1504   0.0000   0.0000   0.0000   0.2912
   4.300   0.6244   0.01480   0.00367  -0.0278  0.1500  0.1500  -1.1775   0.0000   0.0000   0.0000   0.2902
   4.400   0.6350   0.01485   0.00376  -0.0278  0.1500  0.1500  -1.2047   0.0000   0.0000   0.0000   0.2893
   4.500   0.6455   0.01490   0.00384  -0.0277  0.1500  0.1500  -1.2758   0.0000   0.0000   0.0000   0.2885
   4.600   0.6560   0.01495   0.00393  -0.0276  0.1500  0.1500  -1.3487   0.0000   0.0000   0.0000   0.2876
   4.700   0.6664   0.01501   0.00402  -0.0276  0.1500  0.1500  -1.4226   0.0000   0.0000   0.0000   0.2868
   4.800   0.6769   0.01506   0.00412  -0.0275  0.1500  0.1500  -1.4976   0.0000   0.0000   0.0000   0.2860
   4.900   0.6873   0.01512   0.00421  -0.0275  0.1500  0.1500  -1.5736   0.0000   0.0000   0.0000   0.2852
   5.000   0.6978   0.01518   0.00431  -0.0274  0.1500  0.1500  -1.6507   0.0000   0.0000   0.0000   0.2844
   5.100   0.7082   0.01524   0.00441  -0.0273  0.1500  0.1500  -1.7287   0.0000   0.0000   0.0000   0.2836
   5.200   0.7186   0.01530   0.00452  -0.0273  0.1500  0.1500  -1.8078   0.0000   0.0000   0.0000   0.2829
   5.300   0.7289   0.01536   0.00463  -0.0272  0.1500  0.1500  -1.8879   0.0000   0.0000   0.0000   0.2822
   5.400   0.7393   0.01542   0.00473  -0.0271  0.1500  0.1500  -1.9689   0.0000   0.0000   0.0000   0.2815
   5.500   0.7497   0.01551   0.00527  -0.0270  0.1500  0.1500  -2.1356   0.0000   0.0000   0.0000   0.2806
   5.600   0.7601   0.01558   0.00540  -0.0269  0.1500  0.1500  -2.2337   0.0000   0.0000   0.0000   0.2800
   5.700   0.7704   0.01564   0.00554  -0.0268  0.1500  0.1500  -2.3285   0.0000   0.0000   0.0000   0.2793
   5.800   0.7807   0.01571   0.00567  -0.0267  0.1500  0.1500  -2.4222   0.0000   0.0000   0.0000   0.2786
   5.900   0.7909   0.01579   0.00580  -0.0266  0.1500  0.1500  -2.5155   0.0000   0.0000   0.0000   0.2779
   6.000   0.8012   0.01586   0.00594  -0.0265  0.1500  0.1500  -2.6089   0.0000   0.0000   0.0000   0.2773
   6.100   0.8114   0.01594   0.00609  -0.0264  0.1500  0.1500  -2.7026   0.0000   0.0000   0.0000   0.2766
   6.200   0.8216   0.01602   0.00623  -0.0263  0.1500  0.1500  -2.7965   0.0000   0.0000   0.0000   0.2760
   6.300   0.8317   0.01610   0.00639  -0.0262  0.1500  0.1500  -2.8909   0.0000   0.0000   0.0000   0.2754
   6.400   0.8418   0.01619   0.00654  -0.0260  0.1500  0.1500  -2.9857   0.0000   0.0000   0.0000   0.2747
   6.500   0.8519   0.01628   0.00671  -0.0259  0.1500  0.1500  -3.0810   0.0000   0.0000   0.0000   0.2741
   6.600   0.8619   0.01637   0.00688  -0.0258  0.1500  0.1500  -3.1766   0.0000   0.0000   0.0000   0.2735
   6.700   0.8719   0.01647   0.00705  -0.0256  0.1500  0.1500  -3.2726   0.0000   0.0000   0.0000   0.2729
   6.800   0.8818   0.01657   0.00723  -0.0255  0.1500  0.1500  -3.3687   0.0000   0.0000   0.0000   0.2722
   6.900   0.8918   0.01667   0.00742  -0.0253  0.1500  0.1500  -3.4651   0.0000   0.0000   0.0000   0.2716
   7.000   0.9017   0.01678   0.00762  -0.0251  0.1500  0.1500  -3.5614   0.0000   0.0000   0.0000   0.2710
   7.100   0.9097   0.01706   0.00787  -0.0248  0.1403  0.1500  -3.6498   0.0000   0.0000   0.0000   0.2703
   7.200   0.9165   0.01745   0.00813  -0.0244  0.1183  0.1500  -3.7341   0.0000   0.0000   0.0000   0.2695
   7.300   0.9230   0.01788   0.00843  -0.0239  0.0999  0.1500  -3.8162   0.0000   0.0000   0.0000   0.2687
   7.400   0.9303   0.01822   0.00870  -0.0235  0.0860  0.1500  -3.9018   0.0000   0.0000   0.0000   0.2679
   7.500   0.9375   0.01858   0.00900  -0.0231  0.0745  0.1500  -3.9846   0.0000   0.0000   0.0000   0.2672
   7.600   0.9448   0.01892   0.00930  -0.0226  0.0632  0.1500  -4.0657   0.0000   0.0000   0.0000   0.2664
   7.700   0.9512   0.01936   0.00966  -0.0221  0.0501  0.1500  -4.1356   0.0000   0.0000   0.0000   0.2656
   7.800   0.9560   0.01996   0.01013  -0.0214  0.0336  0.1500  -4.1807   0.0000   0.0000   0.0000   0.2646
   7.900   0.9564   0.02111   0.01120  -0.0198  0.0188  0.1500  -4.0802   0.0000   0.0000   0.0000   0.2628
   8.000   0.9635   0.02146   0.01160  -0.0192  0.0177  0.1500  -4.1372   0.0000   0.0000   0.0000   0.2619
   8.100   0.9702   0.02183   0.01205  -0.0186  0.0166  0.1500  -4.1961   0.0000   0.0000   0.0000   0.2611
   8.200   0.9767   0.02222   0.01250  -0.0180  0.0157  0.1500  -4.2582   0.0000   0.0000   0.0000   0.2602
   8.300   0.9830   0.02261   0.01295  -0.0174  0.0149  0.1500  -4.3243   0.0000   0.0000   0.0000   0.2593
   8.400   0.9892   0.02301   0.01340  -0.0168  0.0141  0.1500  -4.3939   0.0000   0.0000   0.0000   0.2584
   8.500   0.9951   0.02341   0.01386  -0.0161  0.0134  0.1500  -4.4671   0.0000   0.0000   0.0000   0.2576
   8.600   1.0009   0.02382   0.01432  -0.0155  0.0127  0.1500  -4.5437   0.0000   0.0000   0.0000   0.2567
   8.700   1.0064   0.02424   0.01478  -0.0148  0.0121  0.1500  -4.6226   0.0000   0.0000   0.0000   0.2558
   8.800   1.0107   0.02478   0.01558  -0.0138  0.0137  0.1500  -4.5843   0.0000   0.0000   0.0000   0.2547
   8.900   1.0156   0.02525   0.01611  -0.0131  0.0134  0.1500  -4.6408   0.0000   0.0000   0.0000   0.2537
   9.000   1.0204   0.02570   0.01661  -0.0123  0.0129  0.1500  -4.7103   0.0000   0.0000   0.0000   0.2528
   9.100   1.0247   0.02613   0.01709  -0.0115  0.0124  0.1500  -4.7847   0.0000   0.0000   0.0000   0.2518
   9.200   1.0286   0.02656   0.01756  -0.0106  0.0119  0.1500  -4.8619   0.0000   0.0000   0.0000   0.2508
   9.300   1.0321   0.02702   0.01805  -0.0097  0.0114  0.1500  -4.9406   0.0000   0.0000   0.0000   0.2498
   9.400   1.0355   0.02753   0.01861  -0.0088  0.0109  0.1500  -5.0177   0.0000   0.0000   0.0000   0.2488
   9.500   1.0382   0.02814   0.01927  -0.0079  0.0104  0.1500  -5.0873   0.0000   0.0000   0.0000   0.2477
   9.600   1.0402   0.02887   0.02004  -0.0069  0.0099  0.1500  -5.1455   0.0000   0.0000   0.0000   0.2466
   9.700   1.0414   0.02974   0.02098  -0.0059  0.0094  0.1500  -5.1902   0.0000   0.0000   0.0000   0.2455
   9.800   1.0421   0.03078   0.02209  -0.0049  0.0090  0.1500  -5.2214   0.0000   0.0000   0.0000   0.2444
   9.900   1.0425   0.03202   0.02344  -0.0038  0.0086  0.1500  -5.2388   0.0000   0.0000   0.0000   0.2432
  10.000   1.0430   0.03352   0.02506  -0.0027  0.0083  0.1500  -5.2410   0.0000   0.0000   0.0000   0.2421
  10.100   1.0433   0.03530   0.02700  -0.0018  0.0080  0.1500  -5.2271   0.0000   0.0000   0.0000   0.2410
  10.200   1.0432   0.03715   0.02899  -0.0008  0.0078  0.1500  -5.2097   0.0000   0.0000   0.0000   0.2400
  10.300   1.0468   0.03765   0.02955  -0.0002  0.0077  0.1500  -5.3071   0.0000   0.0000   0.0000   0.2393
  10.400   1.0498   0.03828   0.03026   0.0004  0.0076  0.1500  -5.3935   0.0000   0.0000   0.0000   0.2386
  10.500   1.0524   0.03901   0.03107   0.0010  0.0076  0.1500  -5.4699   0.0000   0.0000   0.0000   0.2378
  10.600   1.0544   0.03983   0.03198   0.0016  0.0075  0.1500  -5.5369   0.0000   0.0000   0.0000   0.2371
  10.700   1.0556   0.04073   0.03297   0.0023  0.0074  0.1500  -5.5945   0.0000   0.0000   0.0000   0.2363
  10.800   1.0563   0.04170   0.03404   0.0029  0.0074  0.1500  -5.6443   0.0000   0.0000   0.0000   0.2356
  10.900   1.0565   0.04274   0.03518   0.0035  0.0073  0.1500  -5.6873   0.0000   0.0000   0.0000   0.2349
  11.000   1.0561   0.04385   0.03639   0.0041  0.0073  0.1500  -5.7234   0.0000   0.0000   0.0000   0.2342
  11.100   1.0550   0.04502   0.03766   0.0047  0.0073  0.1500  -5.7525   0.0000   0.0000   0.0000   0.2335
  11.200   1.0534   0.04624   0.03899   0.0052  0.0072  0.1500  -5.7760   0.0000   0.0000   0.0000   0.2328
  11.300   1.0512   0.04751   0.04036   0.0057  0.0072  0.1500  -5.7943   0.0000   0.0000   0.0000   0.2322
  11.400   1.0483   0.04884   0.04179   0.0061  0.0072  0.1500  -5.8065   0.0000   0.0000   0.0000   0.2316
  11.500   1.0450   0.05022   0.04327   0.0065  0.0072  0.1500  -5.8145   0.0000   0.0000   0.0000   0.2311
  11.600   1.0414   0.05167   0.04482   0.0067  0.0072  0.1500  -5.8192   0.0000   0.0000   0.0000   0.2307
  11.700   1.0373   0.05319   0.04643   0.0069  0.0072  0.1500  -5.8191   0.0000   0.0000   0.0000   0.2304
  11.800   1.0328   0.05477   0.04811   0.0069  0.0071  0.1500  -5.8154   0.0000   0.0000   0.0000   0.2301
  11.900   1.0282   0.05642   0.04986   0.0069  0.0071  0.1500  -5.8090   0.0000   0.0000   0.0000   0.2300
  12.000   1.0230   0.05814   0.05167   0.0067  0.0071  0.1500  -5.7978   0.0000   0.0000   0.0000   0.2299
  12.100   1.0176   0.05993   0.05355   0.0064  0.0071  0.1500  -5.7838   0.0000   0.0000   0.0000   0.2300
  12.200   1.0121   0.06179   0.05550   0.0060  0.0072  0.1500  -5.7673   0.0000   0.0000   0.0000   0.2302
  12.300   1.0060   0.06373   0.05752   0.0055  0.0072  0.1500  -5.7460   0.0000   0.0000   0.0000   0.2305
  12.400   0.9997   0.06571   0.05959   0.0049  0.0072  0.1500  -5.7225   0.0000   0.0000   0.0000   0.2309
  12.500   0.9932   0.06774   0.06170   0.0042  0.0072  0.1500  -5.6959   0.0000   0.0000   0.0000   0.2314
  12.600   0.9864   0.06989   0.06393   0.0033  0.0072  0.1500  -5.6651   0.0000   0.0000   0.0000   0.2321
  12.700   0.9797   0.07213   0.06624   0.0023  0.0072  0.1500  -5.6327   0.0000   0.0000   0.0000   0.2329
  12.800   0.9728   0.07450   0.06869   0.0011  0.0072  0.1500  -5.5960   0.0000   0.0000   0.0000   0.2339
  12.900   0.9657   0.07699   0.07125  -0.0002  0.0072  0.1500  -5.5559   0.0000   0.0000   0.0000   0.2351
  13.000   0.9588   0.07956   0.07390  -0.0016  0.0072  0.1500  -5.5132   0.0000   0.0000   0.0000   0.2364
  13.100   0.9514   0.08230   0.07670  -0.0032  0.0073  0.1500  -5.4645   0.0000   0.0000   0.0000   0.2380
  13.200   0.9442   0.08511   0.07958  -0.0048  0.0073  0.1500  -5.4132   0.0000   0.0000   0.0000   0.2396
  13.300   0.9368   0.08811   0.08264  -0.0067  0.0073  0.1500  -5.3554   0.0000   0.0000   0.0000   0.2415
  13.400   0.9294   0.09121   0.08580  -0.0087  0.0073  0.1500  -5.2931   0.0000   0.0000   0.0000   0.2436
  13.500   0.9218   0.09447   0.08913  -0.0109  0.0074  0.1500  -5.2236   0.0000   0.0000   0.0000   0.2459
  13.600   0.9141   0.09788   0.09259  -0.0131  0.0074  0.1500  -5.1471   0.0000   0.0000   0.0000   0.2483
  13.700   0.9062   0.10148   0.09625  -0.0155  0.0074  0.1500  -5.0606   0.0000   0.0000   0.0000   0.2510
  13.800   0.8981   0.10524   0.10006  -0.0180  0.0075  0.1500  -4.9642   0.0000   0.0000   0.0000   0.2538
  13.900   0.8895   0.10929   0.10416  -0.0207  0.0075  0.1500  -4.8505   0.0000   0.0000   0.0000   0.2570
  14.000   0.8805   0.11354   0.10845  -0.0234  0.0076  0.1500  -4.7200   0.0000   0.0000   0.0000   0.2603
  14.100   0.8701   0.11832   0.11327  -0.0264  0.0076  0.1500  -4.5516   0.0000   0.0000   0.0000   0.2640
  14.500   0.8476   0.13319   0.12826  -0.0351  0.0079  0.1500  -4.1291   0.0000   0.0000   0.0000   0.2750
  14.600   0.8455   0.13596   0.13105  -0.0366  0.0080  0.1500  -4.0782   0.0000   0.0000   0.0000   0.2769
  14.700   0.8435   0.13869   0.13379  -0.0382  0.0080  0.1500  -4.0241   0.0000   0.0000   0.0000   0.2788
  14.800   0.8417   0.14135   0.13645  -0.0396  0.0081  0.1500  -3.9699   0.0000   0.0000   0.0000   0.2806
  14.900   0.8401   0.14402   0.13913  -0.0411  0.0082  0.1500  -3.9130   0.0000   0.0000   0.0000   0.2823
  15.000   0.8386   0.14669   0.14181  -0.0425  0.0082  0.1500  -3.8544   0.0000   0.0000   0.0000   0.2840
  15.100   0.8374   0.14934   0.14445  -0.0438  0.0083  0.1500  -3.7959   0.0000   0.0000   0.0000   0.2856
  15.200   0.8364   0.15202   0.14713  -0.0451  0.0084  0.1500  -3.7339   0.0000   0.0000   0.0000   0.2872
  15.300   0.8355   0.15470   0.14981  -0.0463  0.0085  0.1500  -3.6706   0.0000   0.0000   0.0000   0.2887
  15.400   0.8348   0.15742   0.15252  -0.0476  0.0086  0.1500  -3.6024   0.0000   0.0000   0.0000   0.2902
  15.500   0.8341   0.16022   0.15532  -0.0488  0.0087  0.1500  -3.5251   0.0000   0.0000   0.0000   0.2917
  15.600   0.8332   0.16326   0.15836  -0.0500  0.0089  0.1500  -3.4271   0.0000   0.0000   0.0000   0.2932
  15.700   0.8311   0.16707   0.16215  -0.0515  0.0093  0.1500  -3.2666   0.0000   0.0000   0.0000   0.2952
  15.800   0.8267   0.17221   0.16726  -0.0534  0.0099  0.1500  -2.9999   0.0000   0.0000   0.0000   0.2979
  15.900   0.8223   0.17728   0.17230  -0.0553  0.0107  0.1500  -2.7483   0.0000   0.0000   0.0000   0.3007
  16.000   0.8200   0.18131   0.17630  -0.0569  0.0113  0.1500  -2.5835   0.0000   0.0000   0.0000   0.3029
  16.100   0.8191   0.18461   0.17959  -0.0582  0.0119  0.1500  -2.4744   0.0000   0.0000   0.0000   0.3045
  16.200   0.8189   0.18759   0.18256  -0.0593  0.0124  0.1500  -2.3904   0.0000   0.0000   0.0000   0.3059
  16.300   0.8190   0.19040   0.18537  -0.0604  0.0130  0.1500  -2.3200   0.0000   0.0000   0.0000   0.3072
  16.400   0.8195   0.19304   0.18801  -0.0615  0.0136  0.1500  -2.2630   0.0000   0.0000   0.0000   0.3083
  16.500   0.8202   0.19554   0.19050  -0.0624  0.0143  0.1500  -2.2172   0.0000   0.0000   0.0000   0.3093
  16.600   0.8212   0.19792   0.19288  -0.0633  0.0150  0.1500  -2.1823   0.0000   0.0000   0.0000   0.3102
  16.700   0.8223   0.20018   0.19514  -0.0640  0.0159  0.1500  -2.1593   0.0000   0.0000   0.0000   0.3109
  16.800   0.8182   0.20505   0.20001  -0.0635  0.0187  0.1500  -2.0845   0.0000   0.0000   0.0000   0.3105
  17.200   0.8363   0.20911   0.20415  -0.0659  0.0198  0.1500  -2.2182   0.0000   0.0000   0.0000   0.3111
  17.300   0.8380   0.21133   0.20638  -0.0667  0.0198  0.1500  -2.2022   0.0000   0.0000   0.0000   0.3118
  17.400   0.8396   0.21359   0.20863  -0.0676  0.0198  0.1500  -2.1883   0.0000   0.0000   0.0000   0.3126
  17.500   0.8410   0.21588   0.21093  -0.0684  0.0197  0.1500  -2.1755   0.0000   0.0000   0.0000   0.3133
  17.600   0.8422   0.21826   0.21331  -0.0692  0.0196  0.1500  -2.1618   0.0000   0.0000   0.0000   0.3140
  17.700   0.8431   0.22085   0.21590  -0.0700  0.0195  0.1500  -2.1425   0.0000   0.0000   0.0000   0.3148
  17.800   0.8421   0.22440   0.21945  -0.0710  0.0191  0.1500  -2.0897   0.0000   0.0000   0.0000   0.3160
  17.900   0.8376   0.23018   0.22517  -0.0724  0.0187  0.1500  -1.9466   0.0000   0.0000   0.0000   0.3182
  18.000   0.8393   0.23246   0.22746  -0.0732  0.0187  0.1500  -1.9358   0.0000   0.0000   0.0000   0.3189
  18.100   0.8411   0.23475   0.22975  -0.0740  0.0187  0.1500  -1.9253   0.0000   0.0000   0.0000   0.3195
  18.200   0.8429   0.23704   0.23204  -0.0748  0.0187  0.1500  -1.9150   0.0000   0.0000   0.0000   0.3202
  18.300   0.8446   0.23933   0.23434  -0.0756  0.0187  0.1500  -1.9049   0.0000   0.0000   0.0000   0.3208
  18.400   0.8464   0.24162   0.23664  -0.0764  0.0187  0.1500  -1.8949   0.0000   0.0000   0.0000   0.3215
  18.500   0.8481   0.24391   0.23894  -0.0772  0.0187  0.1500  -1.8852   0.0000   0.0000   0.0000   0.3221
  18.600   0.8498   0.24621   0.24123  -0.0780  0.0187  0.1500  -1.8756   0.0000   0.0000   0.0000   0.3227
  18.700   0.8515   0.24850   0.24354  -0.0788  0.0186  0.1500  -1.8662   0.0000   0.0000   0.0000   0.3233
  18.800   0.8531   0.25080   0.24584  -0.0796  0.0186  0.1500  -1.8569   0.0000   0.0000   0.0000   0.3240
  18.900   0.8548   0.25309   0.24814  -0.0803  0.0186  0.1500  -1.8477   0.0000   0.0000   0.0000   0.3246
  19.000   0.8564   0.25539   0.25044  -0.0811  0.0186  0.1500  -1.8387   0.0000   0.0000   0.0000   0.3252
  19.100   0.8580   0.25768   0.25274  -0.0819  0.0186  0.1500  -1.8297   0.0000   0.0000   0.0000   0.3258
  19.200   0.8596   0.25998   0.25504  -0.0827  0.0186  0.1500  -1.8209   0.0000   0.0000   0.0000   0.3264
  19.300   0.8611   0.26227   0.25734  -0.0834  0.0186  0.1500  -1.8121   0.0000   0.0000   0.0000   0.3270
  19.400   0.8626   0.26457   0.25965  -0.0842  0.0186  0.1500  -1.8034   0.0000   0.0000   0.0000   0.3276
  19.500   0.8641   0.26686   0.26194  -0.0849  0.0186  0.1500  -1.7948   0.0000   0.0000   0.0000   0.3282
  19.600   0.8655   0.26915   0.26424  -0.0857  0.0186  0.1500  -1.7861   0.0000   0.0000   0.0000   0.3288
  19.700   0.8669   0.27143   0.26653  -0.0864  0.0186  0.1500  -1.7776   0.0000   0.0000   0.0000   0.3294
  19.800   0.8682   0.27371   0.26882  -0.0872  0.0186  0.1500  -1.7690   0.0000   0.0000   0.0000   0.3300
  19.900   0.8695   0.27599   0.27110  -0.0879  0.0185  0.1500  -1.7605   0.0000   0.0000   0.0000   0.3305
  20.000   0.8707   0.27826   0.27338  -0.0887  0.0185  0.1500  -1.7520   0.0000   0.0000   0.0000   0.3311


