xflr5 v6.61

 Calculated polar for: SD6060-104-88-MP

 1 1 Reynolds number fixed          Mach number fixed         

 xtrf =   0.150 (top)        0.150 (bottom)
 Mach =   0.061     Re =     0.225 e 6     Ncrit =   9.000

  alpha     CL        CD       CDp       Cm    Top Xtr Bot Xtr   Cpmin    Chinge    XCp    
 ------- -------- --------- --------- -------- ------- ------- -------- --------- ---------
  -9.900  -0.5155   0.10265   0.09694  -0.0212  0.1500  0.0383  -2.5614   0.0000   0.0000   0.0000   0.2017
  -5.100  -0.3773   0.02102   0.01078  -0.0346  0.1500  0.0262  -3.4461   0.0000   0.0000   0.0000   0.1530
  -5.000  -0.3668   0.02054   0.01018  -0.0343  0.1500  0.0266  -3.3850   0.0000   0.0000   0.0000   0.1511
  -4.900  -0.3562   0.02009   0.00961  -0.0341  0.1500  0.0270  -3.3224   0.0000   0.0000   0.0000   0.1492
  -4.800  -0.3465   0.01935   0.00888  -0.0338  0.1500  0.0274  -3.2715   0.0000   0.0000   0.0000   0.1472
  -4.700  -0.3368   0.01879   0.00834  -0.0335  0.1500  0.0280  -3.2092   0.0000   0.0000   0.0000   0.1452
  -4.600  -0.3269   0.01837   0.00791  -0.0333  0.1500  0.0288  -3.1427   0.0000   0.0000   0.0000   0.1429
  -4.500  -0.3169   0.01799   0.00751  -0.0330  0.1500  0.0297  -3.0781   0.0000   0.0000   0.0000   0.1405
  -4.400  -0.3068   0.01767   0.00715  -0.0328  0.1500  0.0311  -3.0127   0.0000   0.0000   0.0000   0.1379
  -4.300  -0.2969   0.01729   0.00673  -0.0325  0.1500  0.0326  -2.9535   0.0000   0.0000   0.0000   0.1354
  -4.200  -0.2876   0.01688   0.00635  -0.0322  0.1500  0.0345  -2.8812   0.0000   0.0000   0.0000   0.1327
  -4.100  -0.2777   0.01656   0.00601  -0.0320  0.1500  0.0368  -2.8182   0.0000   0.0000   0.0000   0.1296
  -4.000  -0.2682   0.01615   0.00559  -0.0316  0.1500  0.0396  -2.7662   0.0000   0.0000   0.0000   0.1268
  -3.900  -0.2583   0.01585   0.00526  -0.0314  0.1500  0.0449  -2.7088   0.0000   0.0000   0.0000   0.1233
  -3.800  -0.2491   0.01539   0.00488  -0.0311  0.1500  0.0551  -2.6568   0.0000   0.0000   0.0000   0.1201
  -3.700  -0.2400   0.01489   0.00449  -0.0307  0.1500  0.0772  -2.6108   0.0000   0.0000   0.0000   0.1168
  -3.600  -0.2308   0.01447   0.00423  -0.0305  0.1500  0.1055  -2.5356   0.0000   0.0000   0.0000   0.1128
  -3.500  -0.2216   0.01411   0.00403  -0.0303  0.1500  0.1396  -2.4471   0.0000   0.0000   0.0000   0.1080
  -3.400  -0.2111   0.01396   0.00383  -0.0301  0.1500  0.1500  -2.3522   0.0000   0.0000   0.0000   0.1019
  -3.300  -0.2001   0.01391   0.00367  -0.0300  0.1500  0.1500  -2.2507   0.0000   0.0000   0.0000   0.0946
  -3.200  -0.1891   0.01387   0.00354  -0.0299  0.1500  0.1500  -2.1533   0.0000   0.0000   0.0000   0.0862
  -3.100  -0.1782   0.01384   0.00343  -0.0299  0.1500  0.1500  -2.0582   0.0000   0.0000   0.0000   0.0768
  -3.000  -0.1672   0.01381   0.00332  -0.0298  0.1500  0.1500  -1.9632   0.0000   0.0000   0.0000   0.0660
  -2.900  -0.1562   0.01378   0.00322  -0.0298  0.1500  0.1500  -1.8686   0.0000   0.0000   0.0000   0.0537
  -2.800  -0.1453   0.01375   0.00313  -0.0297  0.1500  0.1500  -1.7747   0.0000   0.0000   0.0000   0.0395
  -2.700  -0.1343   0.01373   0.00304  -0.0297  0.1500  0.1500  -1.6817   0.0000   0.0000   0.0000   0.0230
  -2.600  -0.1233   0.01371   0.00296  -0.0296  0.1500  0.1500  -1.5897   0.0000   0.0000   0.0000   0.0035
  -2.500  -0.1123   0.01369   0.00289  -0.0296  0.1500  0.1500  -1.4987   0.0000   0.0000   0.0000  -0.0199
  -2.400  -0.1014   0.01367   0.00282  -0.0295  0.1500  0.1500  -1.4090   0.0000   0.0000   0.0000  -0.0483
  -2.300  -0.0904   0.01366   0.00274  -0.0295  0.1500  0.1500  -1.3205   0.0000   0.0000   0.0000  -0.0837
  -2.200  -0.0794   0.01364   0.00268  -0.0295  0.1500  0.1500  -1.2333   0.0000   0.0000   0.0000  -0.1289
  -2.100  -0.0684   0.01363   0.00262  -0.0294  0.1500  0.1500  -1.1476   0.0000   0.0000   0.0000  -0.1887
  -2.000  -0.0575   0.01362   0.00257  -0.0294  0.1500  0.1500  -1.0682   0.0000   0.0000   0.0000  -0.2713
  -1.900  -0.0465   0.01361   0.00251  -0.0294  0.1500  0.1500  -0.9919   0.0000   0.0000   0.0000  -0.3930
  -1.800  -0.0355   0.01360   0.00246  -0.0293  0.1500  0.1500  -0.9170   0.0000   0.0000   0.0000  -0.5900
  -1.700  -0.0245   0.01359   0.00241  -0.0293  0.1500  0.1500  -0.8433   0.0000   0.0000   0.0000  -0.9635
  -1.600  -0.0135   0.01358   0.00237  -0.0293  0.1500  0.1500  -0.7709   0.0000   0.0000   0.0000  -1.9428
  -1.500  -0.0026   0.01358   0.00233  -0.0293  0.1500  0.1500  -0.6998   0.0000   0.0000   0.0000  -11.3158
  -1.400   0.0084   0.01357   0.00229  -0.0292  0.1500  0.1500  -0.6300   0.0000   0.0000   0.0000   3.7626
  -1.300   0.0194   0.01357   0.00225  -0.0292  0.1500  0.1500  -0.5640   0.0000   0.0000   0.0000   1.7714
  -1.200   0.0304   0.01357   0.00222  -0.0292  0.1500  0.1500  -0.5076   0.0000   0.0000   0.0000   1.2196
  -1.100   0.0413   0.01356   0.00219  -0.0292  0.1500  0.1500  -0.4749   0.0000   0.0000   0.0000   0.9608
  -1.000   0.0523   0.01356   0.00216  -0.0291  0.1500  0.1500  -0.4439   0.0000   0.0000   0.0000   0.8106
  -0.900   0.0633   0.01356   0.00214  -0.0291  0.1500  0.1500  -0.4149   0.0000   0.0000   0.0000   0.7125
  -0.800   0.0743   0.01357   0.00211  -0.0291  0.1500  0.1500  -0.3948   0.0000   0.0000   0.0000   0.6434
  -0.700   0.0852   0.01357   0.00209  -0.0291  0.1500  0.1500  -0.4018   0.0000   0.0000   0.0000   0.5921
  -0.600   0.0962   0.01357   0.00207  -0.0291  0.1500  0.1500  -0.4089   0.0000   0.0000   0.0000   0.5526
  -0.500   0.1072   0.01358   0.00206  -0.0290  0.1500  0.1500  -0.4162   0.0000   0.0000   0.0000   0.5211
  -0.400   0.1181   0.01358   0.00204  -0.0290  0.1500  0.1500  -0.4235   0.0000   0.0000   0.0000   0.4954
  -0.300   0.1291   0.01359   0.00203  -0.0290  0.1500  0.1500  -0.4329   0.0000   0.0000   0.0000   0.4742
  -0.200   0.1400   0.01360   0.00202  -0.0290  0.1500  0.1500  -0.4430   0.0000   0.0000   0.0000   0.4562
  -0.100   0.1510   0.01360   0.00202  -0.0290  0.1500  0.1500  -0.4532   0.0000   0.0000   0.0000   0.4409
   0.000   0.1620   0.01361   0.00201  -0.0289  0.1500  0.1500  -0.4633   0.0000   0.0000   0.0000   0.4276
   0.100   0.1729   0.01362   0.00201  -0.0289  0.1500  0.1500  -0.4735   0.0000   0.0000   0.0000   0.4161
   0.200   0.1838   0.01363   0.00201  -0.0289  0.1500  0.1500  -0.4839   0.0000   0.0000   0.0000   0.4059
   0.300   0.1948   0.01365   0.00201  -0.0289  0.1500  0.1500  -0.4945   0.0000   0.0000   0.0000   0.3968
   0.400   0.2057   0.01366   0.00201  -0.0289  0.1500  0.1500  -0.5052   0.0000   0.0000   0.0000   0.3887
   0.500   0.2167   0.01367   0.00202  -0.0289  0.1500  0.1500  -0.5159   0.0000   0.0000   0.0000   0.3814
   0.600   0.2276   0.01369   0.00203  -0.0288  0.1500  0.1500  -0.5266   0.0000   0.0000   0.0000   0.3749
   0.700   0.2385   0.01370   0.00204  -0.0288  0.1500  0.1500  -0.5374   0.0000   0.0000   0.0000   0.3689
   0.800   0.2494   0.01372   0.00205  -0.0288  0.1500  0.1500  -0.5481   0.0000   0.0000   0.0000   0.3634
   0.900   0.2604   0.01373   0.00206  -0.0288  0.1500  0.1500  -0.5590   0.0000   0.0000   0.0000   0.3584
   1.000   0.2713   0.01375   0.00208  -0.0288  0.1500  0.1500  -0.5698   0.0000   0.0000   0.0000   0.3538
   1.100   0.2822   0.01377   0.00210  -0.0287  0.1500  0.1500  -0.5807   0.0000   0.0000   0.0000   0.3496
   1.200   0.2931   0.01379   0.00212  -0.0287  0.1500  0.1500  -0.5916   0.0000   0.0000   0.0000   0.3457
   1.300   0.3040   0.01381   0.00214  -0.0287  0.1500  0.1500  -0.6028   0.0000   0.0000   0.0000   0.3420
   1.400   0.3149   0.01383   0.00216  -0.0287  0.1500  0.1500  -0.6141   0.0000   0.0000   0.0000   0.3386
   1.500   0.3257   0.01385   0.00219  -0.0287  0.1500  0.1500  -0.6254   0.0000   0.0000   0.0000   0.3354
   1.600   0.3366   0.01388   0.00222  -0.0286  0.1500  0.1500  -0.6368   0.0000   0.0000   0.0000   0.3324
   1.700   0.3475   0.01390   0.00225  -0.0286  0.1500  0.1500  -0.6485   0.0000   0.0000   0.0000   0.3297
   1.800   0.3584   0.01392   0.00228  -0.0286  0.1500  0.1500  -0.6618   0.0000   0.0000   0.0000   0.3270
   1.900   0.3692   0.01395   0.00231  -0.0286  0.1500  0.1500  -0.6754   0.0000   0.0000   0.0000   0.3245
   2.000   0.3801   0.01398   0.00235  -0.0286  0.1500  0.1500  -0.6896   0.0000   0.0000   0.0000   0.3222
   2.100   0.3909   0.01400   0.00239  -0.0285  0.1500  0.1500  -0.7044   0.0000   0.0000   0.0000   0.3200
   2.200   0.4018   0.01403   0.00243  -0.0285  0.1500  0.1500  -0.7196   0.0000   0.0000   0.0000   0.3179
   2.300   0.4126   0.01406   0.00247  -0.0285  0.1500  0.1500  -0.7350   0.0000   0.0000   0.0000   0.3159
   2.400   0.4234   0.01409   0.00252  -0.0284  0.1500  0.1500  -0.7509   0.0000   0.0000   0.0000   0.3140
   2.500   0.4342   0.01412   0.00256  -0.0284  0.1500  0.1500  -0.7671   0.0000   0.0000   0.0000   0.3122
   2.600   0.4450   0.01415   0.00261  -0.0284  0.1500  0.1500  -0.7839   0.0000   0.0000   0.0000   0.3105
   2.700   0.4558   0.01419   0.00266  -0.0284  0.1500  0.1500  -0.8010   0.0000   0.0000   0.0000   0.3088
   2.800   0.4666   0.01422   0.00271  -0.0283  0.1500  0.1500  -0.8188   0.0000   0.0000   0.0000   0.3073
   2.900   0.4774   0.01425   0.00277  -0.0283  0.1500  0.1500  -0.8369   0.0000   0.0000   0.0000   0.3058
   3.000   0.4882   0.01429   0.00283  -0.0283  0.1500  0.1500  -0.8557   0.0000   0.0000   0.0000   0.3043
   3.100   0.4989   0.01433   0.00288  -0.0282  0.1500  0.1500  -0.8746   0.0000   0.0000   0.0000   0.3029
   3.200   0.5097   0.01436   0.00295  -0.0282  0.1500  0.1500  -0.8943   0.0000   0.0000   0.0000   0.3016
   3.300   0.5204   0.01440   0.00301  -0.0282  0.1500  0.1500  -0.9143   0.0000   0.0000   0.0000   0.3003
   3.400   0.5312   0.01444   0.00308  -0.0281  0.1500  0.1500  -0.9351   0.0000   0.0000   0.0000   0.2991
   3.500   0.5419   0.01448   0.00315  -0.0281  0.1500  0.1500  -0.9566   0.0000   0.0000   0.0000   0.2979
   3.600   0.5526   0.01452   0.00321  -0.0280  0.1500  0.1500  -0.9792   0.0000   0.0000   0.0000   0.2967
   3.700   0.5633   0.01457   0.00329  -0.0280  0.1500  0.1500  -1.0029   0.0000   0.0000   0.0000   0.2956
   3.800   0.5740   0.01461   0.00337  -0.0279  0.1500  0.1500  -1.0298   0.0000   0.0000   0.0000   0.2945
   3.900   0.5847   0.01466   0.00344  -0.0279  0.1500  0.1500  -1.0575   0.0000   0.0000   0.0000   0.2935
   4.000   0.5953   0.01470   0.00352  -0.0279  0.1500  0.1500  -1.0868   0.0000   0.0000   0.0000   0.2925
   4.100   0.6060   0.01475   0.00360  -0.0278  0.1500  0.1500  -1.1167   0.0000   0.0000   0.0000   0.2915
   4.200   0.6166   0.01480   0.00369  -0.0278  0.1500  0.1500  -1.1469   0.0000   0.0000   0.0000   0.2905
   4.300   0.6272   0.01485   0.00378  -0.0277  0.1500  0.1500  -1.1825   0.0000   0.0000   0.0000   0.2896
   4.400   0.6378   0.01490   0.00387  -0.0276  0.1500  0.1500  -1.2383   0.0000   0.0000   0.0000   0.2887
   4.500   0.6484   0.01495   0.00396  -0.0276  0.1500  0.1500  -1.2947   0.0000   0.0000   0.0000   0.2878
   4.600   0.6590   0.01500   0.00405  -0.0275  0.1500  0.1500  -1.3517   0.0000   0.0000   0.0000   0.2870
   4.700   0.6696   0.01506   0.00415  -0.0275  0.1500  0.1500  -1.4116   0.0000   0.0000   0.0000   0.2861
   4.800   0.6801   0.01512   0.00425  -0.0274  0.1500  0.1500  -1.4740   0.0000   0.0000   0.0000   0.2853
   4.900   0.6906   0.01517   0.00436  -0.0273  0.1500  0.1500  -1.5372   0.0000   0.0000   0.0000   0.2845
   5.000   0.7012   0.01523   0.00446  -0.0273  0.1500  0.1500  -1.6010   0.0000   0.0000   0.0000   0.2837
   5.100   0.7117   0.01530   0.00457  -0.0272  0.1500  0.1500  -1.6654   0.0000   0.0000   0.0000   0.2830
   5.200   0.7221   0.01536   0.00468  -0.0271  0.1500  0.1500  -1.7305   0.0000   0.0000   0.0000   0.2822
   5.300   0.7326   0.01542   0.00480  -0.0270  0.1500  0.1500  -1.7962   0.0000   0.0000   0.0000   0.2815
   5.400   0.7430   0.01549   0.00492  -0.0269  0.1500  0.1500  -1.8625   0.0000   0.0000   0.0000   0.2808
   5.500   0.7534   0.01556   0.00504  -0.0269  0.1500  0.1500  -1.9294   0.0000   0.0000   0.0000   0.2801
   5.600   0.7638   0.01563   0.00516  -0.0268  0.1500  0.1500  -1.9968   0.0000   0.0000   0.0000   0.2794
   5.700   0.7742   0.01570   0.00529  -0.0267  0.1500  0.1500  -2.0648   0.0000   0.0000   0.0000   0.2787
   5.800   0.7846   0.01577   0.00542  -0.0266  0.1500  0.1500  -2.1374   0.0000   0.0000   0.0000   0.2780
   5.900   0.7949   0.01585   0.00556  -0.0265  0.1500  0.1500  -2.2115   0.0000   0.0000   0.0000   0.2773
   6.000   0.8052   0.01592   0.00570  -0.0264  0.1500  0.1500  -2.2862   0.0000   0.0000   0.0000   0.2767
   6.100   0.8154   0.01600   0.00585  -0.0263  0.1500  0.1500  -2.3614   0.0000   0.0000   0.0000   0.2760
   6.200   0.8257   0.01608   0.00599  -0.0262  0.1500  0.1500  -2.4372   0.0000   0.0000   0.0000   0.2754
   6.300   0.8359   0.01617   0.00615  -0.0260  0.1500  0.1500  -2.5135   0.0000   0.0000   0.0000   0.2748
   6.400   0.8461   0.01626   0.00630  -0.0259  0.1500  0.1500  -2.5902   0.0000   0.0000   0.0000   0.2741
   6.500   0.8562   0.01635   0.00646  -0.0258  0.1500  0.1500  -2.6673   0.0000   0.0000   0.0000   0.2735
   6.600   0.8664   0.01644   0.00663  -0.0256  0.1500  0.1500  -2.7504   0.0000   0.0000   0.0000   0.2729
   6.700   0.8764   0.01654   0.00680  -0.0255  0.1500  0.1500  -2.8340   0.0000   0.0000   0.0000   0.2723
   6.800   0.8865   0.01664   0.00699  -0.0253  0.1500  0.1500  -2.9212   0.0000   0.0000   0.0000   0.2717
   6.900   0.8965   0.01674   0.00718  -0.0252  0.1500  0.1500  -3.0219   0.0000   0.0000   0.0000   0.2711
   7.000   0.9064   0.01685   0.00737  -0.0250  0.1500  0.1500  -3.1259   0.0000   0.0000   0.0000   0.2705
   7.100   0.9163   0.01697   0.00758  -0.0248  0.1500  0.1500  -3.2303   0.0000   0.0000   0.0000   0.2698
   7.200   0.9262   0.01709   0.00779  -0.0246  0.1500  0.1500  -3.3347   0.0000   0.0000   0.0000   0.2692
   7.300   0.9359   0.01722   0.00803  -0.0244  0.1500  0.1500  -3.4453   0.0000   0.0000   0.0000   0.2686
   7.400   0.9455   0.01737   0.00828  -0.0241  0.1500  0.1500  -3.5552   0.0000   0.0000   0.0000   0.2679
   7.500   0.9534   0.01768   0.00857  -0.0237  0.1371  0.1500  -3.6574   0.0000   0.0000   0.0000   0.2672
   7.600   0.9605   0.01806   0.00889  -0.0233  0.1193  0.1500  -3.7542   0.0000   0.0000   0.0000   0.2664
   7.700   0.9665   0.01857   0.00928  -0.0227  0.0973  0.1500  -3.8413   0.0000   0.0000   0.0000   0.2656
   7.800   0.9705   0.01929   0.00980  -0.0219  0.0735  0.1500  -3.9094   0.0000   0.0000   0.0000   0.2645
   7.900   0.9745   0.02001   0.01040  -0.0210  0.0580  0.1500  -3.9708   0.0000   0.0000   0.0000   0.2634
   8.000   0.9797   0.02058   0.01093  -0.0202  0.0508  0.1500  -4.0436   0.0000   0.0000   0.0000   0.2624
   8.100   0.9852   0.02111   0.01145  -0.0195  0.0468  0.1500  -4.1203   0.0000   0.0000   0.0000   0.2614
   8.200   0.9911   0.02157   0.01193  -0.0188  0.0439  0.1500  -4.2105   0.0000   0.0000   0.0000   0.2605
   8.300   0.9962   0.02211   0.01246  -0.0180  0.0419  0.1500  -4.2942   0.0000   0.0000   0.0000   0.2595
   8.400   1.0025   0.02252   0.01293  -0.0174  0.0400  0.1500  -4.3869   0.0000   0.0000   0.0000   0.2586
   8.500   1.0084   0.02296   0.01338  -0.0168  0.0385  0.1500  -4.4817   0.0000   0.0000   0.0000   0.2578
   8.600   1.0124   0.02355   0.01395  -0.0159  0.0372  0.1500  -4.5663   0.0000   0.0000   0.0000   0.2568
   8.700   1.0182   0.02400   0.01446  -0.0152  0.0361  0.1500  -4.6562   0.0000   0.0000   0.0000   0.2559
   8.800   1.0242   0.02444   0.01495  -0.0146  0.0350  0.1500  -4.7486   0.0000   0.0000   0.0000   0.2550
   8.900   1.0298   0.02491   0.01546  -0.0139  0.0341  0.1500  -4.8398   0.0000   0.0000   0.0000   0.2541
   9.000   1.0352   0.02539   0.01596  -0.0132  0.0332  0.1500  -4.9328   0.0000   0.0000   0.0000   0.2533
   9.100   1.0401   0.02593   0.01649  -0.0125  0.0324  0.1500  -5.0248   0.0000   0.0000   0.0000   0.2524
   9.200   1.0437   0.02671   0.01724  -0.0117  0.0317  0.1500  -5.1037   0.0000   0.0000   0.0000   0.2514
   9.300   1.0501   0.02713   0.01773  -0.0110  0.0310  0.1500  -5.1973   0.0000   0.0000   0.0000   0.2506
   9.400   1.0561   0.02758   0.01826  -0.0103  0.0302  0.1500  -5.2893   0.0000   0.0000   0.0000   0.2498
   9.500   1.0619   0.02808   0.01881  -0.0097  0.0295  0.1500  -5.3804   0.0000   0.0000   0.0000   0.2490
   9.600   1.0678   0.02861   0.01937  -0.0090  0.0289  0.1500  -5.4733   0.0000   0.0000   0.0000   0.2482
   9.700   1.0736   0.02913   0.01992  -0.0084  0.0282  0.1500  -5.5707   0.0000   0.0000   0.0000   0.2475
   9.800   1.0797   0.02973   0.02051  -0.0079  0.0275  0.1500  -5.6736   0.0000   0.0000   0.0000   0.2468
   9.900   1.0893   0.03083   0.02155  -0.0080  0.0267  0.1500  -5.7847   0.0000   0.0000   0.0000   0.2467
  10.000   1.0948   0.03129   0.02213  -0.0073  0.0263  0.1500  -5.8715   0.0000   0.0000   0.0000   0.2459
  10.100   1.1014   0.03189   0.02284  -0.0067  0.0257  0.1500  -5.9665   0.0000   0.0000   0.0000   0.2452
  10.200   1.1080   0.03253   0.02357  -0.0062  0.0252  0.1500  -6.0638   0.0000   0.0000   0.0000   0.2445
  10.300   1.1145   0.03316   0.02427  -0.0057  0.0245  0.1500  -6.1661   0.0000   0.0000   0.0000   0.2439
  10.400   1.1208   0.03377   0.02492  -0.0052  0.0239  0.1500  -6.2751   0.0000   0.0000   0.0000   0.2434
  10.500   1.1271   0.03442   0.02560  -0.0048  0.0234  0.1500  -6.3882   0.0000   0.0000   0.0000   0.2428
  10.600   1.1375   0.03545   0.02661  -0.0050  0.0228  0.1500  -6.5246   0.0000   0.0000   0.0000   0.2429
  10.700   1.1484   0.03694   0.02818  -0.0053  0.0223  0.1500  -6.6244   0.0000   0.0000   0.0000   0.2429
  10.800   1.1503   0.03761   0.02902  -0.0042  0.0221  0.1500  -6.6765   0.0000   0.0000   0.0000   0.2418
  10.900   1.1524   0.03839   0.02996  -0.0032  0.0218  0.1500  -6.7269   0.0000   0.0000   0.0000   0.2408
  11.000   1.1545   0.03923   0.03096  -0.0022  0.0214  0.1500  -6.7768   0.0000   0.0000   0.0000   0.2398
  11.100   1.1564   0.04012   0.03198  -0.0013  0.0211  0.1500  -6.8280   0.0000   0.0000   0.0000   0.2389
  11.200   1.1583   0.04102   0.03301  -0.0004  0.0207  0.1500  -6.8819   0.0000   0.0000   0.0000   0.2380
  11.300   1.1602   0.04194   0.03403   0.0003  0.0204  0.1500  -6.9384   0.0000   0.0000   0.0000   0.2372
  11.400   1.1620   0.04291   0.03510   0.0011  0.0201  0.1500  -6.9938   0.0000   0.0000   0.0000   0.2365
  11.500   1.1634   0.04397   0.03627   0.0018  0.0200  0.1500  -7.0399   0.0000   0.0000   0.0000   0.2357
  11.600   1.1643   0.04508   0.03749   0.0025  0.0198  0.1500  -7.0807   0.0000   0.0000   0.0000   0.2349
  11.700   1.1646   0.04622   0.03873   0.0033  0.0197  0.1500  -7.1172   0.0000   0.0000   0.0000   0.2342
  11.800   1.1648   0.04735   0.03996   0.0040  0.0196  0.1500  -7.1561   0.0000   0.0000   0.0000   0.2334
  11.900   1.1658   0.04845   0.04114   0.0045  0.0194  0.1500  -7.2078   0.0000   0.0000   0.0000   0.2328
  12.000   1.1697   0.04951   0.04221   0.0048  0.0192  0.1500  -7.2961   0.0000   0.0000   0.0000   0.2324
  12.100   1.1700   0.05077   0.04354   0.0053  0.0190  0.1500  -7.3439   0.0000   0.0000   0.0000   0.2318
  12.200   1.1697   0.05225   0.04508   0.0058  0.0188  0.1500  -7.3816   0.0000   0.0000   0.0000   0.2313
  12.300   1.1679   0.05393   0.04685   0.0062  0.0187  0.1500  -7.3960   0.0000   0.0000   0.0000   0.2308
  12.400   1.1645   0.05570   0.04872   0.0067  0.0186  0.1500  -7.3918   0.0000   0.0000   0.0000   0.2302
  12.500   1.1595   0.05735   0.05047   0.0073  0.0186  0.1500  -7.3782   0.0000   0.0000   0.0000   0.2296
  12.600   1.1530   0.05870   0.05193   0.0078  0.0186  0.1500  -7.3631   0.0000   0.0000   0.0000   0.2289
  12.700   1.1465   0.06013   0.05348   0.0081  0.0186  0.1500  -7.3461   0.0000   0.0000   0.0000   0.2284
  12.800   1.1400   0.06165   0.05510   0.0084  0.0186  0.1500  -7.3274   0.0000   0.0000   0.0000   0.2280
  12.900   1.1334   0.06325   0.05682   0.0085  0.0185  0.1500  -7.3071   0.0000   0.0000   0.0000   0.2277
  13.000   1.1268   0.06493   0.05859   0.0084  0.0185  0.1500  -7.2852   0.0000   0.0000   0.0000   0.2275
  13.100   1.1201   0.06669   0.06045   0.0083  0.0185  0.1500  -7.2619   0.0000   0.0000   0.0000   0.2274
  13.200   1.1135   0.06852   0.06237   0.0080  0.0185  0.1500  -7.2373   0.0000   0.0000   0.0000   0.2274
  13.300   1.1069   0.07042   0.06436   0.0077  0.0185  0.1500  -7.2117   0.0000   0.0000   0.0000   0.2275
  13.400   1.1004   0.07240   0.06641   0.0072  0.0186  0.1500  -7.1851   0.0000   0.0000   0.0000   0.2278
  13.500   1.0940   0.07444   0.06853   0.0066  0.0186  0.1500  -7.1577   0.0000   0.0000   0.0000   0.2281
  13.600   1.0877   0.07654   0.07071   0.0060  0.0186  0.1500  -7.1298   0.0000   0.0000   0.0000   0.2285


